# generated using pymatgen
data_Cu2(SO4)3
_symmetry_space_group_name_H-M   'P 1'
_cell_length_a   8.82181658
_cell_length_b   8.82181658
_cell_length_c   8.82181670
_cell_angle_alpha   55.28523620
_cell_angle_beta   55.28523620
_cell_angle_gamma   55.28524076
_symmetry_Int_Tables_number   1
_chemical_formula_structural   Cu2(SO4)3
_chemical_formula_sum   'Cu4 S6 O24'
_cell_volume   432.27449395
_cell_formula_units_Z   2
loop_
 _symmetry_equiv_pos_site_id
 _symmetry_equiv_pos_as_xyz
  1  'x, y, z'
loop_
 _atom_site_type_symbol
 _atom_site_label
 _atom_site_symmetry_multiplicity
 _atom_site_fract_x
 _atom_site_fract_y
 _atom_site_fract_z
 _atom_site_occupancy
  Cu  Cu0  1  0.14594800  0.14594800  0.14594800  1
  Cu  Cu1  1  0.34631100  0.34631100  0.34631100  1
  Cu  Cu2  1  0.65368900  0.65368900  0.65368900  1
  Cu  Cu3  1  0.85405200  0.85405200  0.85405200  1
  S  S4  1  0.74873300  0.03988900  0.45816700  1
  S  S5  1  0.96011100  0.54183300  0.25126700  1
  S  S6  1  0.54183300  0.25126700  0.96011100  1
  S  S7  1  0.45816700  0.74873300  0.03988900  1
  S  S8  1  0.03988900  0.45816700  0.74873300  1
  S  S9  1  0.25126700  0.96011100  0.54183300  1
  O  O10  1  0.53316300  0.20753100  0.15514100  1
  O  O11  1  0.20753100  0.15514100  0.53316300  1
  O  O12  1  0.79714800  0.01790900  0.60626400  1
  O  O13  1  0.87486500  0.13426100  0.25673300  1
  O  O14  1  0.15514100  0.53316300  0.20753100  1
  O  O15  1  0.74326700  0.12513500  0.86573900  1
  O  O16  1  0.98209100  0.39373600  0.20285200  1
  O  O17  1  0.53735300  0.16993500  0.49288900  1
  O  O18  1  0.83006500  0.50711100  0.46264700  1
  O  O19  1  0.39373600  0.20285200  0.98209100  1
  O  O20  1  0.86573900  0.74326700  0.12513500  1
  O  O21  1  0.50711100  0.46264700  0.83006500  1
  O  O22  1  0.49288900  0.53735300  0.16993500  1
  O  O23  1  0.13426100  0.25673300  0.87486500  1
  O  O24  1  0.60626400  0.79714800  0.01790900  1
  O  O25  1  0.16993500  0.49288900  0.53735300  1
  O  O26  1  0.46264700  0.83006500  0.50711100  1
  O  O27  1  0.01790900  0.60626400  0.79714800  1
  O  O28  1  0.25673300  0.87486500  0.13426100  1
  O  O29  1  0.84485900  0.46683700  0.79246900  1
  O  O30  1  0.12513500  0.86573900  0.74326700  1
  O  O31  1  0.20285200  0.98209100  0.39373600  1
  O  O32  1  0.79246900  0.84485900  0.46683700  1
  O  O33  1  0.46683700  0.79246900  0.84485900  1
