# generated using pymatgen
data_NaGdRe4(H2O5)4
_symmetry_space_group_name_H-M   'P 1'
_cell_length_a   12.72371100
_cell_length_b   12.72371100
_cell_length_c   5.75980400
_cell_angle_alpha   90.00000000
_cell_angle_beta   90.00000000
_cell_angle_gamma   90.00000000
_symmetry_Int_Tables_number   1
_chemical_formula_structural   NaGdRe4(H2O5)4
_chemical_formula_sum   'Na2 Gd2 Re8 H16 O40'
_cell_volume   932.47092149
_cell_formula_units_Z   2
loop_
 _symmetry_equiv_pos_site_id
 _symmetry_equiv_pos_as_xyz
  1  'x, y, z'
loop_
 _atom_site_type_symbol
 _atom_site_label
 _atom_site_symmetry_multiplicity
 _atom_site_fract_x
 _atom_site_fract_y
 _atom_site_fract_z
 _atom_site_occupancy
  Na  Na0  1  0.50000000  0.50000000  0.00000000  1
  Na  Na1  1  0.00000000  0.00000000  0.50000000  1
  Gd  Gd2  1  0.50000000  0.00000000  0.25000000  1
  Gd  Gd3  1  0.00000000  0.50000000  0.75000000  1
  Re  Re4  1  0.40774100  0.71482000  0.46559400  1
  Re  Re5  1  0.90774100  0.78518000  0.96559400  1
  Re  Re6  1  0.71482000  0.59225900  0.53440600  1
  Re  Re7  1  0.21482000  0.90774100  0.03440600  1
  Re  Re8  1  0.59225900  0.28518000  0.46559400  1
  Re  Re9  1  0.09225900  0.21482000  0.96559400  1
  Re  Re10  1  0.28518000  0.40774100  0.53440600  1
  Re  Re11  1  0.78518000  0.09225900  0.03440600  1
  H  H12  1  0.33592200  0.13538500  0.49186300  1
  H  H13  1  0.83592200  0.36461500  0.99186300  1
  H  H14  1  0.13538500  0.66407800  0.50813700  1
  H  H15  1  0.63538500  0.83592200  0.00813700  1
  H  H16  1  0.66407800  0.86461500  0.49186300  1
  H  H17  1  0.16407800  0.63538500  0.99186300  1
  H  H18  1  0.86461500  0.33592200  0.50813700  1
  H  H19  1  0.36461500  0.16407800  0.00813700  1
  H  H20  1  0.28530900  0.02290100  0.46391700  1
  H  H21  1  0.78530900  0.47709900  0.96391700  1
  H  H22  1  0.02290100  0.71469100  0.53608300  1
  H  H23  1  0.52290100  0.78530900  0.03608300  1
  H  H24  1  0.71469100  0.97709900  0.46391700  1
  H  H25  1  0.21469100  0.52290100  0.96391700  1
  H  H26  1  0.97709900  0.28530900  0.53608300  1
  H  H27  1  0.47709900  0.21469100  0.03608300  1
  O  O28  1  0.43503600  0.85100300  0.49165100  1
  O  O29  1  0.93503600  0.64899700  0.99165100  1
  O  O30  1  0.85100300  0.56496400  0.50834900  1
  O  O31  1  0.35100300  0.93503600  0.00834900  1
  O  O32  1  0.56496400  0.14899700  0.49165100  1
  O  O33  1  0.06496400  0.35100300  0.99165100  1
  O  O34  1  0.14899700  0.43503600  0.50834900  1
  O  O35  1  0.64899700  0.06496400  0.00834900  1
  O  O36  1  0.27290600  0.69231500  0.49817600  1
  O  O37  1  0.77290600  0.80768500  0.99817600  1
  O  O38  1  0.69231500  0.72709400  0.50182400  1
  O  O39  1  0.19231500  0.77290600  0.00182400  1
  O  O40  1  0.72709400  0.30768500  0.49817600  1
  O  O41  1  0.22709400  0.19231500  0.99817600  1
  O  O42  1  0.30768500  0.27290600  0.50182400  1
  O  O43  1  0.80768500  0.22709400  0.00182400  1
  O  O44  1  0.47585300  0.64484600  0.67855900  1
  O  O45  1  0.97585300  0.85515400  0.17855900  1
  O  O46  1  0.64484600  0.52414700  0.32144100  1
  O  O47  1  0.14484600  0.97585300  0.82144100  1
  O  O48  1  0.52414700  0.35515400  0.67855900  1
  O  O49  1  0.02414700  0.14484600  0.17855900  1
  O  O50  1  0.35515400  0.47585300  0.32144100  1
  O  O51  1  0.85515400  0.02414700  0.82144100  1
  O  O52  1  0.45015700  0.67482400  0.19004500  1
  O  O53  1  0.95015700  0.82517600  0.69004500  1
  O  O54  1  0.67482400  0.54984300  0.80995500  1
  O  O55  1  0.17482400  0.95015700  0.30995500  1
  O  O56  1  0.54984300  0.32517600  0.19004500  1
  O  O57  1  0.04984300  0.17482400  0.69004500  1
  O  O58  1  0.32517600  0.45015700  0.80995500  1
  O  O59  1  0.82517600  0.04984300  0.30995500  1
  O  O60  1  0.35308200  0.05969700  0.48042400  1
  O  O61  1  0.85308200  0.44030300  0.98042400  1
  O  O62  1  0.05969700  0.64691800  0.51957600  1
  O  O63  1  0.55969700  0.85308200  0.01957600  1
  O  O64  1  0.64691800  0.94030300  0.48042400  1
  O  O65  1  0.14691800  0.55969700  0.98042400  1
  O  O66  1  0.94030300  0.35308200  0.51957600  1
  O  O67  1  0.44030300  0.14691800  0.01957600  1
