# generated using pymatgen
data_CoH12(BrO6)2
_symmetry_space_group_name_H-M   'P 1'
_cell_length_a   10.81313600
_cell_length_b   10.81313600
_cell_length_c   10.81313600
_cell_angle_alpha   90.00000000
_cell_angle_beta   90.00000000
_cell_angle_gamma   90.00000000
_symmetry_Int_Tables_number   1
_chemical_formula_structural   CoH12(BrO6)2
_chemical_formula_sum   'Co4 H48 Br8 O48'
_cell_volume   1264.31414215
_cell_formula_units_Z   4
loop_
 _symmetry_equiv_pos_site_id
 _symmetry_equiv_pos_as_xyz
  1  'x, y, z'
loop_
 _atom_site_type_symbol
 _atom_site_label
 _atom_site_symmetry_multiplicity
 _atom_site_fract_x
 _atom_site_fract_y
 _atom_site_fract_z
 _atom_site_occupancy
  Co  Co0  1  0.50000000  0.50000000  0.00000000  1
  Co  Co1  1  0.50000000  0.00000000  0.50000000  1
  Co  Co2  1  0.00000000  0.50000000  0.50000000  1
  Co  Co3  1  0.00000000  0.00000000  0.00000000  1
  H  H4  1  0.03207300  0.58086300  0.26391000  1
  H  H5  1  0.96792700  0.08086300  0.23609000  1
  H  H6  1  0.46792700  0.41913700  0.76391000  1
  H  H7  1  0.53207300  0.91913700  0.73609000  1
  H  H8  1  0.26391000  0.03207300  0.58086300  1
  H  H9  1  0.23609000  0.96792700  0.08086300  1
  H  H10  1  0.76391000  0.46792700  0.41913700  1
  H  H11  1  0.73609000  0.53207300  0.91913700  1
  H  H12  1  0.58086300  0.26391000  0.03207300  1
  H  H13  1  0.08086300  0.23609000  0.96792700  1
  H  H14  1  0.41913700  0.76391000  0.46792700  1
  H  H15  1  0.91913700  0.73609000  0.53207300  1
  H  H16  1  0.96792700  0.41913700  0.73609000  1
  H  H17  1  0.03207300  0.91913700  0.76391000  1
  H  H18  1  0.53207300  0.58086300  0.23609000  1
  H  H19  1  0.46792700  0.08086300  0.26391000  1
  H  H20  1  0.73609000  0.96792700  0.41913700  1
  H  H21  1  0.76391000  0.03207300  0.91913700  1
  H  H22  1  0.23609000  0.53207300  0.58086300  1
  H  H23  1  0.26391000  0.46792700  0.08086300  1
  H  H24  1  0.41913700  0.73609000  0.96792700  1
  H  H25  1  0.91913700  0.76391000  0.03207300  1
  H  H26  1  0.58086300  0.23609000  0.53207300  1
  H  H27  1  0.08086300  0.26391000  0.46792700  1
  H  H28  1  0.26548900  0.43319900  0.94163800  1
  H  H29  1  0.73451100  0.93319900  0.55836200  1
  H  H30  1  0.23451100  0.56680100  0.44163800  1
  H  H31  1  0.76548900  0.06680100  0.05836200  1
  H  H32  1  0.94163800  0.26548900  0.43319900  1
  H  H33  1  0.55836200  0.73451100  0.93319900  1
  H  H34  1  0.44163800  0.23451100  0.56680100  1
  H  H35  1  0.05836200  0.76548900  0.06680100  1
  H  H36  1  0.43319900  0.94163800  0.26548900  1
  H  H37  1  0.93319900  0.55836200  0.73451100  1
  H  H38  1  0.56680100  0.44163800  0.23451100  1
  H  H39  1  0.06680100  0.05836200  0.76548900  1
  H  H40  1  0.73451100  0.56680100  0.05836200  1
  H  H41  1  0.26548900  0.06680100  0.44163800  1
  H  H42  1  0.76548900  0.43319900  0.55836200  1
  H  H43  1  0.23451100  0.93319900  0.94163800  1
  H  H44  1  0.05836200  0.73451100  0.56680100  1
  H  H45  1  0.44163800  0.26548900  0.06680100  1
  H  H46  1  0.55836200  0.76548900  0.43319900  1
  H  H47  1  0.94163800  0.23451100  0.93319900  1
  H  H48  1  0.56680100  0.05836200  0.73451100  1
  H  H49  1  0.06680100  0.44163800  0.26548900  1
  H  H50  1  0.43319900  0.55836200  0.76548900  1
  H  H51  1  0.93319900  0.94163800  0.23451100  1
  Br  Br52  1  0.22637100  0.77362900  0.27362900  1
  Br  Br53  1  0.77362900  0.27362900  0.22637100  1
  Br  Br54  1  0.27362900  0.22637100  0.77362900  1
  Br  Br55  1  0.72637100  0.72637100  0.72637100  1
  Br  Br56  1  0.77362900  0.22637100  0.72637100  1
  Br  Br57  1  0.22637100  0.72637100  0.77362900  1
  Br  Br58  1  0.72637100  0.77362900  0.22637100  1
  Br  Br59  1  0.27362900  0.27362900  0.27362900  1
  O  O60  1  0.32709700  0.64645900  0.68489100  1
  O  O61  1  0.67290300  0.14645900  0.81510900  1
  O  O62  1  0.17290300  0.35354100  0.18489100  1
  O  O63  1  0.82709700  0.85354100  0.31510900  1
  O  O64  1  0.68489100  0.32709700  0.64645900  1
  O  O65  1  0.81510900  0.67290300  0.14645900  1
  O  O66  1  0.18489100  0.17290300  0.35354100  1
  O  O67  1  0.31510900  0.82709700  0.85354100  1
  O  O68  1  0.64645900  0.68489100  0.32709700  1
  O  O69  1  0.14645900  0.81510900  0.67290300  1
  O  O70  1  0.35354100  0.18489100  0.17290300  1
  O  O71  1  0.85354100  0.31510900  0.82709700  1
  O  O72  1  0.67290300  0.35354100  0.31510900  1
  O  O73  1  0.32709700  0.85354100  0.18489100  1
  O  O74  1  0.82709700  0.64645900  0.81510900  1
  O  O75  1  0.17290300  0.14645900  0.68489100  1
  O  O76  1  0.31510900  0.67290300  0.35354100  1
  O  O77  1  0.18489100  0.32709700  0.85354100  1
  O  O78  1  0.81510900  0.82709700  0.64645900  1
  O  O79  1  0.68489100  0.17290300  0.14645900  1
  O  O80  1  0.35354100  0.31510900  0.67290300  1
  O  O81  1  0.85354100  0.18489100  0.32709700  1
  O  O82  1  0.64645900  0.81510900  0.82709700  1
  O  O83  1  0.14645900  0.68489100  0.17290300  1
  O  O84  1  0.49159300  0.49810200  0.80353500  1
  O  O85  1  0.50840700  0.99810200  0.69646500  1
  O  O86  1  0.00840700  0.50189800  0.30353500  1
  O  O87  1  0.99159300  0.00189800  0.19646500  1
  O  O88  1  0.80353500  0.49159300  0.49810200  1
  O  O89  1  0.69646500  0.50840700  0.99810200  1
  O  O90  1  0.30353500  0.00840700  0.50189800  1
  O  O91  1  0.19646500  0.99159300  0.00189800  1
  O  O92  1  0.49810200  0.80353500  0.49159300  1
  O  O93  1  0.99810200  0.69646500  0.50840700  1
  O  O94  1  0.50189800  0.30353500  0.00840700  1
  O  O95  1  0.00189800  0.19646500  0.99159300  1
  O  O96  1  0.50840700  0.50189800  0.19646500  1
  O  O97  1  0.49159300  0.00189800  0.30353500  1
  O  O98  1  0.99159300  0.49810200  0.69646500  1
  O  O99  1  0.00840700  0.99810200  0.80353500  1
  O  O100  1  0.19646500  0.50840700  0.50189800  1
  O  O101  1  0.30353500  0.49159300  0.00189800  1
  O  O102  1  0.69646500  0.99159300  0.49810200  1
  O  O103  1  0.80353500  0.00840700  0.99810200  1
  O  O104  1  0.50189800  0.19646500  0.50840700  1
  O  O105  1  0.00189800  0.30353500  0.49159300  1
  O  O106  1  0.49810200  0.69646500  0.99159300  1
  O  O107  1  0.99810200  0.80353500  0.00840700  1
