# generated using pymatgen
data_SrZnH6O5
_symmetry_space_group_name_H-M   'P 1'
_cell_length_a   6.25379500
_cell_length_b   6.36218147
_cell_length_c   7.82673629
_cell_angle_alpha   74.55343938
_cell_angle_beta   66.58183460
_cell_angle_gamma   72.30159292
_symmetry_Int_Tables_number   1
_chemical_formula_structural   SrZnH6O5
_chemical_formula_sum   'Sr2 Zn2 H12 O10'
_cell_volume   268.43445742
_cell_formula_units_Z   2
loop_
 _symmetry_equiv_pos_site_id
 _symmetry_equiv_pos_as_xyz
  1  'x, y, z'
loop_
 _atom_site_type_symbol
 _atom_site_label
 _atom_site_symmetry_multiplicity
 _atom_site_fract_x
 _atom_site_fract_y
 _atom_site_fract_z
 _atom_site_occupancy
  Sr  Sr0  1  0.55508000  0.40217800  0.75326900  1
  Sr  Sr1  1  0.44492000  0.59782200  0.24673100  1
  Zn  Zn2  1  0.09685300  0.24696800  0.27025500  1
  Zn  Zn3  1  0.90314700  0.75303200  0.72974500  1
  H  H4  1  0.00879300  0.94582400  0.17983100  1
  H  H5  1  0.99120700  0.05417600  0.82016900  1
  H  H6  1  0.09501900  0.61235800  0.04607000  1
  H  H7  1  0.90498100  0.38764200  0.95393000  1
  H  H8  1  0.69514500  0.19340600  0.42284300  1
  H  H9  1  0.30485500  0.80659400  0.57715700  1
  H  H10  1  0.72381800  0.81233200  0.47227200  1
  H  H11  1  0.27618200  0.18766800  0.52772800  1
  H  H12  1  0.43539400  0.97831500  0.72643800  1
  H  H13  1  0.56460600  0.02168500  0.27356200  1
  H  H14  1  0.25370400  0.04844300  0.93301100  1
  H  H15  1  0.74629600  0.95155700  0.06698900  1
  O  O16  1  0.16445500  0.97572800  0.15590400  1
  O  O17  1  0.83554500  0.02427200  0.84409600  1
  O  O18  1  0.22665200  0.49414900  0.06813600  1
  O  O19  1  0.77334800  0.50585100  0.93186400  1
  O  O20  1  0.75297700  0.32536400  0.40970000  1
  O  O21  1  0.24702300  0.67463600  0.59030000  1
  O  O22  1  0.66513800  0.78859800  0.61035000  1
  O  O23  1  0.33486200  0.21140200  0.38965000  1
  O  O24  1  0.30830400  0.10317700  0.78930200  1
  O  O25  1  0.69169600  0.89682300  0.21069800  1
