# generated using pymatgen
data_Na2InPCO7
_symmetry_space_group_name_H-M   'P 1'
_cell_length_a   6.82775300
_cell_length_b   5.27396600
_cell_length_c   9.13950778
_cell_angle_alpha   89.56717630
_cell_angle_beta   90.00000000
_cell_angle_gamma   90.00000000
_symmetry_Int_Tables_number   1
_chemical_formula_structural   Na2InPCO7
_chemical_formula_sum   'Na4 In2 P2 C2 O14'
_cell_volume   329.09822678
_cell_formula_units_Z   2
loop_
 _symmetry_equiv_pos_site_id
 _symmetry_equiv_pos_as_xyz
  1  'x, y, z'
loop_
 _atom_site_type_symbol
 _atom_site_label
 _atom_site_symmetry_multiplicity
 _atom_site_fract_x
 _atom_site_fract_y
 _atom_site_fract_z
 _atom_site_occupancy
  Na  Na0  1  0.49766200  0.23245200  0.77907500  1
  Na  Na1  1  0.00233800  0.23245200  0.77907500  1
  Na  Na2  1  0.50233800  0.76754800  0.22092500  1
  Na  Na3  1  0.99766200  0.76754800  0.22092500  1
  In  In4  1  0.75000000  0.77347700  0.64044000  1
  In  In5  1  0.25000000  0.22652300  0.35956000  1
  P  P6  1  0.25000000  0.71253700  0.57857200  1
  P  P7  1  0.75000000  0.28746300  0.42142800  1
  C  C8  1  0.75000000  0.73099000  0.93026700  1
  C  C9  1  0.25000000  0.26901000  0.06973300  1
  O  O10  1  0.25000000  0.29725300  0.93329900  1
  O  O11  1  0.75000000  0.95336400  0.86439200  1
  O  O12  1  0.75000000  0.53322400  0.83983100  1
  O  O13  1  0.06710400  0.80184700  0.66314500  1
  O  O14  1  0.43289600  0.80184700  0.66314500  1
  O  O15  1  0.75000000  0.17900200  0.58128500  1
  O  O16  1  0.25000000  0.41399000  0.56766200  1
  O  O17  1  0.75000000  0.58601000  0.43233800  1
  O  O18  1  0.25000000  0.82099800  0.41871500  1
  O  O19  1  0.56710400  0.19815300  0.33685500  1
  O  O20  1  0.93289600  0.19815300  0.33685500  1
  O  O21  1  0.25000000  0.46677600  0.16016900  1
  O  O22  1  0.25000000  0.04663600  0.13560800  1
  O  O23  1  0.75000000  0.70274700  0.06670100  1
