# generated using pymatgen
data_K2Ag4S3
_symmetry_space_group_name_H-M   'P 1'
_cell_length_a   9.17620854
_cell_length_b   9.17620854
_cell_length_c   11.74111795
_cell_angle_alpha   72.09624699
_cell_angle_beta   72.09624699
_cell_angle_gamma   27.11851034
_symmetry_Int_Tables_number   1
_chemical_formula_structural   K2Ag4S3
_chemical_formula_sum   'K4 Ag8 S6'
_cell_volume   427.52520601
_cell_formula_units_Z   2
loop_
 _symmetry_equiv_pos_site_id
 _symmetry_equiv_pos_as_xyz
  1  'x, y, z'
loop_
 _atom_site_type_symbol
 _atom_site_label
 _atom_site_symmetry_multiplicity
 _atom_site_fract_x
 _atom_site_fract_y
 _atom_site_fract_z
 _atom_site_occupancy
  K  K0  1  0.18580600  0.18580600  0.65855200  1
  K  K1  1  0.81419400  0.81419400  0.34144800  1
  K  K2  1  0.33215300  0.33215300  0.84056700  1
  K  K3  1  0.66784700  0.66784700  0.15943300  1
  Ag  Ag4  1  0.40706300  0.40706300  0.50962400  1
  Ag  Ag5  1  0.59293700  0.59293700  0.49037600  1
  Ag  Ag6  1  0.41007100  0.41007100  0.08627800  1
  Ag  Ag7  1  0.02264400  0.02264400  0.36696500  1
  Ag  Ag8  1  0.97735600  0.97735600  0.63303500  1
  Ag  Ag9  1  0.01453000  0.01453000  0.12161800  1
  Ag  Ag10  1  0.98547000  0.98547000  0.87838200  1
  Ag  Ag11  1  0.58992900  0.58992900  0.91372200  1
  S  S12  1  0.46749700  0.46749700  0.27405300  1
  S  S13  1  0.85423300  0.85423300  0.04197100  1
  S  S14  1  0.14576700  0.14576700  0.95802900  1
  S  S15  1  0.83952600  0.83952600  0.61219400  1
  S  S16  1  0.53250300  0.53250300  0.72594700  1
  S  S17  1  0.16047400  0.16047400  0.38780600  1
