# generated using pymatgen
data_Bi3PO7
_symmetry_space_group_name_H-M   'P 1'
_cell_length_a   9.43572657
_cell_length_b   9.43572657
_cell_length_c   12.28981445
_cell_angle_alpha   77.21854505
_cell_angle_beta   77.21854505
_cell_angle_gamma   92.48932576
_symmetry_Int_Tables_number   1
_chemical_formula_structural   Bi3PO7
_chemical_formula_sum   'Bi18 P6 O42'
_cell_volume   1035.72324951
_cell_formula_units_Z   6
loop_
 _symmetry_equiv_pos_site_id
 _symmetry_equiv_pos_as_xyz
  1  'x, y, z'
loop_
 _atom_site_type_symbol
 _atom_site_label
 _atom_site_symmetry_multiplicity
 _atom_site_fract_x
 _atom_site_fract_y
 _atom_site_fract_z
 _atom_site_occupancy
  Bi  Bi0  1  0.14575800  0.48334500  0.05454100  1
  Bi  Bi1  1  0.48334500  0.14575800  0.05454100  1
  Bi  Bi2  1  0.19008100  0.50152800  0.37818000  1
  Bi  Bi3  1  0.50152800  0.19008100  0.37818000  1
  Bi  Bi4  1  0.19060500  0.85023500  0.15999800  1
  Bi  Bi5  1  0.85023500  0.19060500  0.15999800  1
  Bi  Bi6  1  0.50854800  0.20008600  0.71817000  1
  Bi  Bi7  1  0.20008600  0.50854800  0.71817000  1
  Bi  Bi8  1  0.13380400  0.82759100  0.49824100  1
  Bi  Bi9  1  0.82759100  0.13380400  0.49824100  1
  Bi  Bi10  1  0.14584200  0.83509800  0.83709100  1
  Bi  Bi11  1  0.83509800  0.14584200  0.83709100  1
  Bi  Bi12  1  0.84423400  0.49982300  0.30277300  1
  Bi  Bi13  1  0.49982300  0.84423400  0.30277300  1
  Bi  Bi14  1  0.48112000  0.85405000  0.60940200  1
  Bi  Bi15  1  0.85405000  0.48112000  0.60940200  1
  Bi  Bi16  1  0.49135200  0.83625400  0.91529500  1
  Bi  Bi17  1  0.83625400  0.49135200  0.91529500  1
  P  P18  1  0.17018200  0.17018200  0.28727800  1
  P  P19  1  0.16589000  0.16589000  0.92459900  1
  P  P20  1  0.50482200  0.50482200  0.48855400  1
  P  P21  1  0.50062300  0.50062300  0.87212200  1
  P  P22  1  0.83938000  0.83938000  0.34343200  1
  P  P23  1  0.83495100  0.83495100  0.72673400  1
  O  O24  1  0.07574400  0.07574400  0.40185500  1
  O  O25  1  0.26075900  0.07061900  0.21901100  1
  O  O26  1  0.07061900  0.26075900  0.21901100  1
  O  O27  1  0.05287600  0.05287600  0.90603200  1
  O  O28  1  0.28133900  0.28133900  0.30939600  1
  O  O29  1  0.58507700  0.09367000  0.22505100  1
  O  O30  1  0.09367000  0.58507700  0.22505100  1
  O  O31  1  0.07613600  0.26760500  0.99077300  1
  O  O32  1  0.26760500  0.07613600  0.99077300  1
  O  O33  1  0.25799700  0.25799700  0.80796300  1
  O  O34  1  0.10414600  0.56490700  0.55341900  1
  O  O35  1  0.56490700  0.10414600  0.55341900  1
  O  O36  1  0.40198200  0.40198200  0.59724800  1
  O  O37  1  0.47425600  0.47425600  0.37595700  1
  O  O38  1  0.58305400  0.07829500  0.88536500  1
  O  O39  1  0.07829500  0.58305400  0.88536500  1
  O  O40  1  0.25769300  0.75455100  0.33052900  1
  O  O41  1  0.75455100  0.25769300  0.33052900  1
  O  O42  1  0.38956900  0.38956900  0.97074000  1
  O  O43  1  0.89369500  0.44224400  0.10543800  1
  O  O44  1  0.44224400  0.89369500  0.10543800  1
  O  O45  1  0.23234800  0.76947700  0.66221700  1
  O  O46  1  0.76947700  0.23234800  0.66221700  1
  O  O47  1  0.66436000  0.47225200  0.49140200  1
  O  O48  1  0.47225200  0.66436000  0.49140200  1
  O  O49  1  0.60672600  0.41656400  0.79855200  1
  O  O50  1  0.41656400  0.60672600  0.79855200  1
  O  O51  1  0.75159300  0.24308200  0.98978500  1
  O  O52  1  0.24308200  0.75159300  0.98978500  1
  O  O53  1  0.95120100  0.38917900  0.44513900  1
  O  O54  1  0.38917900  0.95120100  0.44513900  1
  O  O55  1  0.74290400  0.74290400  0.29350100  1
  O  O56  1  0.59156600  0.59156600  0.93054600  1
  O  O57  1  0.94798000  0.38553200  0.76928200  1
  O  O58  1  0.38553200  0.94798000  0.76928200  1
  O  O59  1  0.92732100  0.73684000  0.41616100  1
  O  O60  1  0.73684000  0.92732100  0.41616100  1
  O  O61  1  0.86865400  0.67703500  0.71933300  1
  O  O62  1  0.67703500  0.86865400  0.71933300  1
  O  O63  1  0.94627600  0.94627600  0.23942100  1
  O  O64  1  0.85934100  0.85934100  0.84264900  1
  O  O65  1  0.94329300  0.94329300  0.62335300  1
