# generated using pymatgen
data_Ca(CdSb)2
_symmetry_space_group_name_H-M   'P 1'
_cell_length_a   4.72881619
_cell_length_b   4.72881619
_cell_length_c   7.65057100
_cell_angle_alpha   90.00000000
_cell_angle_beta   90.00000000
_cell_angle_gamma   120.00000260
_symmetry_Int_Tables_number   1
_chemical_formula_structural   Ca(CdSb)2
_chemical_formula_sum   'Ca1 Cd2 Sb2'
_cell_volume   148.15944275
_cell_formula_units_Z   1
loop_
 _symmetry_equiv_pos_site_id
 _symmetry_equiv_pos_as_xyz
  1  'x, y, z'
loop_
 _atom_site_type_symbol
 _atom_site_label
 _atom_site_symmetry_multiplicity
 _atom_site_fract_x
 _atom_site_fract_y
 _atom_site_fract_z
 _atom_site_occupancy
  Ca  Ca0  1  0.00000000  0.00000000  0.00000000  1
  Cd  Cd1  1  0.33333300  0.66666700  0.63063700  1
  Cd  Cd2  1  0.66666700  0.33333300  0.36936300  1
  Sb  Sb3  1  0.33333300  0.66666700  0.23563300  1
  Sb  Sb4  1  0.66666700  0.33333300  0.76436700  1
