# generated using pymatgen
data_EuSeO4
_symmetry_space_group_name_H-M   'P 1'
_cell_length_a   7.36557100
_cell_length_b   6.92240600
_cell_length_c   8.68755957
_cell_angle_alpha   53.01357384
_cell_angle_beta   90.00000000
_cell_angle_gamma   90.00000000
_symmetry_Int_Tables_number   1
_chemical_formula_structural   EuSeO4
_chemical_formula_sum   'Eu4 Se4 O16'
_cell_volume   353.82410093
_cell_formula_units_Z   4
loop_
 _symmetry_equiv_pos_site_id
 _symmetry_equiv_pos_as_xyz
  1  'x, y, z'
loop_
 _atom_site_type_symbol
 _atom_site_label
 _atom_site_symmetry_multiplicity
 _atom_site_fract_x
 _atom_site_fract_y
 _atom_site_fract_z
 _atom_site_occupancy
  Eu  Eu0  1  0.84768900  0.81649600  0.78073000  1
  Eu  Eu1  1  0.34768900  0.18350400  0.71927000  1
  Eu  Eu2  1  0.65231100  0.81649600  0.28073000  1
  Eu  Eu3  1  0.15231100  0.18350400  0.21927000  1
  Se  Se4  1  0.83736100  0.31369900  0.80304900  1
  Se  Se5  1  0.33736100  0.68630100  0.69695100  1
  Se  Se6  1  0.66263900  0.31369900  0.30304900  1
  Se  Se7  1  0.16263900  0.68630100  0.19695100  1
  O  O8  1  0.89315100  0.34269400  0.97783100  1
  O  O9  1  0.65559000  0.12047200  0.88762600  1
  O  O10  1  0.29097200  0.39762200  0.88510800  1
  O  O11  1  0.50016700  0.81995000  0.74260000  1
  O  O12  1  0.79097200  0.60237800  0.61489200  1
  O  O13  1  0.00016700  0.18005000  0.75740000  1
  O  O14  1  0.15559000  0.87952800  0.61237400  1
  O  O15  1  0.39315100  0.65730600  0.52216900  1
  O  O16  1  0.60684900  0.34269400  0.47783100  1
  O  O17  1  0.84441000  0.12047200  0.38762600  1
  O  O18  1  0.99983300  0.81995000  0.24260000  1
  O  O19  1  0.20902800  0.39762200  0.38510800  1
  O  O20  1  0.49983300  0.18005000  0.25740000  1
  O  O21  1  0.70902800  0.60237800  0.11489200  1
  O  O22  1  0.34441000  0.87952800  0.11237400  1
  O  O23  1  0.10684900  0.65730600  0.02216900  1
