# generated using pymatgen
data_MnNb3(PO4)6
_symmetry_space_group_name_H-M   'P 1'
_cell_length_a   8.98471075
_cell_length_b   8.98471075
_cell_length_c   8.98471056
_cell_angle_alpha   58.54981855
_cell_angle_beta   58.54981855
_cell_angle_gamma   58.54981627
_symmetry_Int_Tables_number   1
_chemical_formula_structural   MnNb3(PO4)6
_chemical_formula_sum   'Mn1 Nb3 P6 O24'
_cell_volume   495.84931225
_cell_formula_units_Z   1
loop_
 _symmetry_equiv_pos_site_id
 _symmetry_equiv_pos_as_xyz
  1  'x, y, z'
loop_
 _atom_site_type_symbol
 _atom_site_label
 _atom_site_symmetry_multiplicity
 _atom_site_fract_x
 _atom_site_fract_y
 _atom_site_fract_z
 _atom_site_occupancy
  Mn  Mn0  1  0.14314700  0.14314700  0.14314700  1
  Nb  Nb1  1  0.85943900  0.85943900  0.85943900  1
  Nb  Nb2  1  0.64165700  0.64165700  0.64165700  1
  Nb  Nb3  1  0.36043200  0.36043200  0.36043200  1
  P  P4  1  0.52919800  0.96760100  0.24946700  1
  P  P5  1  0.24946700  0.52919800  0.96760100  1
  P  P6  1  0.96760100  0.24946700  0.52919800  1
  P  P7  1  0.03468300  0.75749000  0.45995600  1
  P  P8  1  0.75749000  0.45995600  0.03468300  1
  P  P9  1  0.45995600  0.03468300  0.75749000  1
  O  O10  1  0.50023400  0.86730600  0.71577400  1
  O  O11  1  0.86730600  0.71577400  0.50023400  1
  O  O12  1  0.71130000  0.93771200  0.07990900  1
  O  O13  1  0.71577400  0.50023400  0.86730600  1
  O  O14  1  0.56681300  0.78970600  0.41944800  1
  O  O15  1  0.36620400  0.98771400  0.22411300  1
  O  O16  1  0.07990900  0.71130000  0.93771200  1
  O  O17  1  0.41944800  0.56681300  0.78970600  1
  O  O18  1  0.78970600  0.41944800  0.56681300  1
  O  O19  1  0.00340000  0.78010400  0.63524100  1
  O  O20  1  0.05861800  0.92192000  0.28486000  1
  O  O21  1  0.78010400  0.63524100  0.00340000  1
  O  O22  1  0.22411300  0.36620400  0.98771400  1
  O  O23  1  0.93771200  0.07990900  0.71130000  1
  O  O24  1  0.98771400  0.22411300  0.36620400  1
  O  O25  1  0.20968100  0.57881800  0.43953400  1
  O  O26  1  0.57881800  0.43953400  0.20968100  1
  O  O27  1  0.92192000  0.28486000  0.05861800  1
  O  O28  1  0.63524100  0.00340000  0.78010400  1
  O  O29  1  0.43953400  0.20968100  0.57881800  1
  O  O30  1  0.28053100  0.50299300  0.13499600  1
  O  O31  1  0.28486000  0.05861800  0.92192000  1
  O  O32  1  0.13499600  0.28053100  0.50299300  1
  O  O33  1  0.50299300  0.13499600  0.28053100  1
