# generated using pymatgen
data_Na2ZnPHO5
_symmetry_space_group_name_H-M   'P 1'
_cell_length_a   10.01706400
_cell_length_b   5.85393300
_cell_length_c   8.64033580
_cell_angle_alpha   75.06404518
_cell_angle_beta   90.00000000
_cell_angle_gamma   90.00000000
_symmetry_Int_Tables_number   1
_chemical_formula_structural   Na2ZnPHO5
_chemical_formula_sum   'Na8 Zn4 P4 H4 O20'
_cell_volume   489.54473238
_cell_formula_units_Z   4
loop_
 _symmetry_equiv_pos_site_id
 _symmetry_equiv_pos_as_xyz
  1  'x, y, z'
loop_
 _atom_site_type_symbol
 _atom_site_label
 _atom_site_symmetry_multiplicity
 _atom_site_fract_x
 _atom_site_fract_y
 _atom_site_fract_z
 _atom_site_occupancy
  Na  Na0  1  0.85584000  0.31438800  0.30309600  1
  Na  Na1  1  0.17001400  0.35381200  0.38491000  1
  Na  Na2  1  0.64416000  0.81438800  0.30309600  1
  Na  Na3  1  0.32998600  0.85381200  0.38491000  1
  Na  Na4  1  0.67001400  0.14618800  0.61509000  1
  Na  Na5  1  0.35584000  0.18561200  0.69690400  1
  Na  Na6  1  0.82998600  0.64618800  0.61509000  1
  Na  Na7  1  0.14416000  0.68561200  0.69690400  1
  Zn  Zn8  1  0.14043600  0.21827100  0.01078500  1
  Zn  Zn9  1  0.35956400  0.71827100  0.01078500  1
  Zn  Zn10  1  0.64043600  0.28172900  0.98921500  1
  Zn  Zn11  1  0.85956400  0.78172900  0.98921500  1
  P  P12  1  0.49227800  0.36280800  0.29666200  1
  P  P13  1  0.00772200  0.86280800  0.29666200  1
  P  P14  1  0.99227800  0.13719200  0.70333800  1
  P  P15  1  0.50772200  0.63719200  0.70333800  1
  H  H16  1  0.37450500  0.12958000  0.04048000  1
  H  H17  1  0.12549500  0.62958000  0.04048000  1
  H  H18  1  0.87450500  0.37042000  0.95952000  1
  H  H19  1  0.62549500  0.87042000  0.95952000  1
  O  O20  1  0.80692700  0.44227800  0.01633800  1
  O  O21  1  0.69307300  0.94227800  0.01633800  1
  O  O22  1  0.49924700  0.23971800  0.15342400  1
  O  O23  1  0.06468200  0.12308500  0.23040800  1
  O  O24  1  0.00075300  0.73971800  0.15342400  1
  O  O25  1  0.43531800  0.62308500  0.23040800  1
  O  O26  1  0.63342400  0.38296100  0.36135200  1
  O  O27  1  0.39376200  0.21779500  0.42090000  1
  O  O28  1  0.86657600  0.88296100  0.36135200  1
  O  O29  1  0.10623800  0.71779500  0.42090000  1
  O  O30  1  0.89376200  0.28220500  0.57910000  1
  O  O31  1  0.13342400  0.11703900  0.63864800  1
  O  O32  1  0.60623800  0.78220500  0.57910000  1
  O  O33  1  0.36657600  0.61703900  0.63864800  1
  O  O34  1  0.56468200  0.37691500  0.76959200  1
  O  O35  1  0.99924700  0.26028200  0.84657600  1
  O  O36  1  0.93531800  0.87691500  0.76959200  1
  O  O37  1  0.50075300  0.76028200  0.84657600  1
  O  O38  1  0.30692700  0.05772200  0.98366200  1
  O  O39  1  0.19307300  0.55772200  0.98366200  1
