# generated using pymatgen
data_Yb3Ge5
_symmetry_space_group_name_H-M   'P 1'
_cell_length_a   6.95098560
_cell_length_b   6.95098560
_cell_length_c   4.30009600
_cell_angle_alpha   90.00000000
_cell_angle_beta   90.00000000
_cell_angle_gamma   119.99999623
_symmetry_Int_Tables_number   1
_chemical_formula_structural   Yb3Ge5
_chemical_formula_sum   'Yb3 Ge5'
_cell_volume   179.92917043
_cell_formula_units_Z   1
loop_
 _symmetry_equiv_pos_site_id
 _symmetry_equiv_pos_as_xyz
  1  'x, y, z'
loop_
 _atom_site_type_symbol
 _atom_site_label
 _atom_site_symmetry_multiplicity
 _atom_site_fract_x
 _atom_site_fract_y
 _atom_site_fract_z
 _atom_site_occupancy
  Yb  Yb0  1  0.00000000  0.64277400  0.50000000  1
  Yb  Yb1  1  0.35722600  0.35722600  0.50000000  1
  Yb  Yb2  1  0.64277400  0.00000000  0.50000000  1
  Ge  Ge3  1  0.66666700  0.33333300  0.00000000  1
  Ge  Ge4  1  0.33333300  0.66666700  0.00000000  1
  Ge  Ge5  1  0.00000000  0.26850600  0.00000000  1
  Ge  Ge6  1  0.26850600  0.00000000  0.00000000  1
  Ge  Ge7  1  0.73149400  0.73149400  0.00000000  1
