# generated using pymatgen
data_Dy2(SeO4)3
_symmetry_space_group_name_H-M   'P 1'
_cell_length_a   9.69624300
_cell_length_b   9.78577300
_cell_length_c   13.47649200
_cell_angle_alpha   90.00000000
_cell_angle_beta   90.00000000
_cell_angle_gamma   90.00000000
_symmetry_Int_Tables_number   1
_chemical_formula_structural   Dy2(SeO4)3
_chemical_formula_sum   'Dy8 Se12 O48'
_cell_volume   1278.72008278
_cell_formula_units_Z   4
loop_
 _symmetry_equiv_pos_site_id
 _symmetry_equiv_pos_as_xyz
  1  'x, y, z'
loop_
 _atom_site_type_symbol
 _atom_site_label
 _atom_site_symmetry_multiplicity
 _atom_site_fract_x
 _atom_site_fract_y
 _atom_site_fract_z
 _atom_site_occupancy
  Dy  Dy0  1  0.24979100  0.96236000  0.11776500  1
  Dy  Dy1  1  0.75020900  0.46236000  0.11776500  1
  Dy  Dy2  1  0.25020900  0.46236000  0.38223500  1
  Dy  Dy3  1  0.74979100  0.96236000  0.38223500  1
  Dy  Dy4  1  0.25020900  0.03764000  0.61776500  1
  Dy  Dy5  1  0.74979100  0.53764000  0.61776500  1
  Dy  Dy6  1  0.24979100  0.53764000  0.88223500  1
  Dy  Dy7  1  0.75020900  0.03764000  0.88223500  1
  Se  Se8  1  0.03509900  0.25000000  0.00000000  1
  Se  Se9  1  0.96490100  0.75000000  0.00000000  1
  Se  Se10  1  0.39397400  0.61151400  0.14666000  1
  Se  Se11  1  0.60602600  0.11151400  0.14666000  1
  Se  Se12  1  0.10602600  0.11151400  0.35334000  1
  Se  Se13  1  0.89397400  0.61151400  0.35334000  1
  Se  Se14  1  0.46490100  0.75000000  0.50000000  1
  Se  Se15  1  0.53509900  0.25000000  0.50000000  1
  Se  Se16  1  0.10602600  0.38848600  0.64666000  1
  Se  Se17  1  0.89397400  0.88848600  0.64666000  1
  Se  Se18  1  0.39397400  0.88848600  0.85334000  1
  Se  Se19  1  0.60602600  0.38848600  0.85334000  1
  O  O20  1  0.66697500  0.07434700  0.03467900  1
  O  O21  1  0.33302500  0.57434700  0.03467900  1
  O  O22  1  0.86515000  0.64519800  0.06457500  1
  O  O23  1  0.13485000  0.14519800  0.06457500  1
  O  O24  1  0.06190700  0.83621000  0.08025500  1
  O  O25  1  0.93809300  0.33621000  0.08025500  1
  O  O26  1  0.43567400  0.09447200  0.14848600  1
  O  O27  1  0.56432600  0.59447200  0.14848600  1
  O  O28  1  0.35619900  0.77244300  0.17635500  1
  O  O29  1  0.64380100  0.27244300  0.17635500  1
  O  O30  1  0.32269200  0.50378600  0.22705000  1
  O  O31  1  0.67730800  0.00378600  0.22705000  1
  O  O32  1  0.17730800  0.00378600  0.27295000  1
  O  O33  1  0.82269200  0.50378600  0.27295000  1
  O  O34  1  0.85619900  0.77244300  0.32364500  1
  O  O35  1  0.14380100  0.27244300  0.32364500  1
  O  O36  1  0.06432600  0.59447200  0.35151400  1
  O  O37  1  0.93567400  0.09447200  0.35151400  1
  O  O38  1  0.43809300  0.33621000  0.41974500  1
  O  O39  1  0.56190700  0.83621000  0.41974500  1
  O  O40  1  0.36515000  0.64519800  0.43542500  1
  O  O41  1  0.63485000  0.14519800  0.43542500  1
  O  O42  1  0.16697500  0.07434700  0.46532100  1
  O  O43  1  0.83302500  0.57434700  0.46532100  1
  O  O44  1  0.16697500  0.42565300  0.53467900  1
  O  O45  1  0.83302500  0.92565300  0.53467900  1
  O  O46  1  0.63485000  0.35480200  0.56457500  1
  O  O47  1  0.36515000  0.85480200  0.56457500  1
  O  O48  1  0.43809300  0.16379000  0.58025500  1
  O  O49  1  0.56190700  0.66379000  0.58025500  1
  O  O50  1  0.06432600  0.90552800  0.64848600  1
  O  O51  1  0.93567400  0.40552800  0.64848600  1
  O  O52  1  0.14380100  0.22755700  0.67635500  1
  O  O53  1  0.85619900  0.72755700  0.67635500  1
  O  O54  1  0.17730800  0.49621400  0.72705000  1
  O  O55  1  0.82269200  0.99621400  0.72705000  1
  O  O56  1  0.32269200  0.99621400  0.77295000  1
  O  O57  1  0.67730800  0.49621400  0.77295000  1
  O  O58  1  0.35619900  0.72755700  0.82364500  1
  O  O59  1  0.64380100  0.22755700  0.82364500  1
  O  O60  1  0.43567400  0.40552800  0.85151400  1
  O  O61  1  0.56432600  0.90552800  0.85151400  1
  O  O62  1  0.06190700  0.66379000  0.91974500  1
  O  O63  1  0.93809300  0.16379000  0.91974500  1
  O  O64  1  0.13485000  0.35480200  0.93542500  1
  O  O65  1  0.86515000  0.85480200  0.93542500  1
  O  O66  1  0.33302500  0.92565300  0.96532100  1
  O  O67  1  0.66697500  0.42565300  0.96532100  1
