# generated using pymatgen
data_Mg11Ti25O60
_symmetry_space_group_name_H-M   'P 1'
_cell_length_a   10.51542500
_cell_length_b   11.34068386
_cell_length_c   11.38834627
_cell_angle_alpha   99.54867601
_cell_angle_beta   110.01670622
_cell_angle_gamma   111.07046788
_symmetry_Int_Tables_number   1
_chemical_formula_structural   Mg11Ti25O60
_chemical_formula_sum   'Mg11 Ti25 O60'
_cell_volume   1124.20945428
_cell_formula_units_Z   1
loop_
 _symmetry_equiv_pos_site_id
 _symmetry_equiv_pos_as_xyz
  1  'x, y, z'
loop_
 _atom_site_type_symbol
 _atom_site_label
 _atom_site_symmetry_multiplicity
 _atom_site_fract_x
 _atom_site_fract_y
 _atom_site_fract_z
 _atom_site_occupancy
  Mg  Mg0  1  0.07015400  0.31643800  0.75005700  1
  Mg  Mg1  1  0.07004400  0.64694400  0.74995700  1
  Mg  Mg2  1  0.57117800  0.64808700  0.74979200  1
  Mg  Mg3  1  0.57174500  0.31564800  0.75019700  1
  Mg  Mg4  1  0.57143300  0.98271900  0.75002000  1
  Mg  Mg5  1  0.42879100  0.01746600  0.25071700  1
  Mg  Mg6  1  0.42869100  0.68437100  0.24991600  1
  Mg  Mg7  1  0.42883700  0.35214700  0.25080100  1
  Mg  Mg8  1  0.92878500  0.35134700  0.25031000  1
  Mg  Mg9  1  0.92816200  0.01798400  0.24905900  1
  Mg  Mg10  1  0.92791300  0.68371100  0.24917600  1
  Ti  Ti11  1  0.07268200  0.98255500  0.74993800  1
  Ti  Ti12  1  0.15041400  0.47801900  0.56693200  1
  Ti  Ti13  1  0.33832500  0.27144900  0.93900400  1
  Ti  Ti14  1  0.14843000  0.14502200  0.56094700  1
  Ti  Ti15  1  0.14920300  0.80779700  0.56121700  1
  Ti  Ti16  1  0.33265400  0.59978200  0.93304000  1
  Ti  Ti17  1  0.33806000  0.93374900  0.93880000  1
  Ti  Ti18  1  0.17041600  0.06845700  0.07001900  1
  Ti  Ti19  1  0.16629800  0.40004300  0.06713900  1
  Ti  Ti20  1  0.34991700  0.52140800  0.43312200  1
  Ti  Ti21  1  0.35304600  0.19032100  0.43528100  1
  Ti  Ti22  1  0.16588900  0.73289600  0.06667300  1
  Ti  Ti23  1  0.35234500  0.85708600  0.43324900  1
  Ti  Ti24  1  0.65005300  0.14470200  0.56708100  1
  Ti  Ti25  1  0.64998300  0.47793900  0.56699500  1
  Ti  Ti26  1  0.64591100  0.80927700  0.56591500  1
  Ti  Ti27  1  0.83304500  0.26678700  0.93291100  1
  Ti  Ti28  1  0.83275000  0.59982400  0.93283200  1
  Ti  Ti29  1  0.82994400  0.93199000  0.93380000  1
  Ti  Ti30  1  0.66919600  0.06838300  0.06682800  1
  Ti  Ti31  1  0.84941900  0.18900400  0.43335100  1
  Ti  Ti32  1  0.66530800  0.73176600  0.06510200  1
  Ti  Ti33  1  0.66934400  0.40083400  0.06671600  1
  Ti  Ti34  1  0.85036700  0.85502200  0.42988000  1
  Ti  Ti35  1  0.84935700  0.52174700  0.43320700  1
  O  O36  1  0.15670700  0.51060300  0.75022600  1
  O  O37  1  0.14885300  0.16783100  0.74991100  1
  O  O38  1  0.14891600  0.84810200  0.75002000  1
  O  O39  1  0.27542900  0.08026300  0.93080400  1
  O  O40  1  0.28115700  0.41505100  0.93461500  1
  O  O41  1  0.09654400  0.29203200  0.56546900  1
  O  O42  1  0.09462100  0.95969500  0.56912000  1
  O  O43  1  0.09654800  0.62750200  0.56545000  1
  O  O44  1  0.28111700  0.75061000  0.93456400  1
  O  O45  1  0.14723900  0.44697000  0.38686300  1
  O  O46  1  0.01016800  0.02171000  0.11028400  1
  O  O47  1  0.14679400  0.11302900  0.38639300  1
  O  O48  1  0.01047500  0.35560000  0.11340500  1
  O  O49  1  0.01065300  0.68913800  0.11350200  1
  O  O50  1  0.14689400  0.78048700  0.38656900  1
  O  O51  1  0.35280000  0.55316100  0.61325900  1
  O  O52  1  0.48961300  0.64449900  0.88685200  1
  O  O53  1  0.35217000  0.21963200  0.61330700  1
  O  O54  1  0.48875300  0.31087000  0.88647000  1
  O  O55  1  0.35226300  0.88615500  0.61342700  1
  O  O56  1  0.48886100  0.97721500  0.88659200  1
  O  O57  1  0.40518900  0.04137200  0.43685900  1
  O  O58  1  0.21847600  0.58327000  0.06227300  1
  O  O59  1  0.21834300  0.24952700  0.06289200  1
  O  O60  1  0.21845300  0.91695300  0.06294900  1
  O  O61  1  0.40520100  0.37433100  0.43686500  1
  O  O62  1  0.40836000  0.70932200  0.43894600  1
  O  O63  1  0.34275500  0.15578200  0.24920900  1
  O  O64  1  0.34316500  0.48964200  0.25001000  1
  O  O65  1  0.34330000  0.82259800  0.25052400  1
  O  O66  1  0.65692000  0.17731600  0.74998500  1
  O  O67  1  0.65699800  0.51057100  0.75006000  1
  O  O68  1  0.65817500  0.84447600  0.75005000  1
  O  O69  1  0.59387800  0.29170200  0.56251000  1
  O  O70  1  0.78132400  0.08300200  0.93732400  1
  O  O71  1  0.78179400  0.75042600  0.93677200  1
  O  O72  1  0.59494800  0.62578200  0.56312100  1
  O  O73  1  0.78146000  0.41679100  0.93764700  1
  O  O74  1  0.59407500  0.95832300  0.56274400  1
  O  O75  1  0.64723600  0.11355100  0.38653100  1
  O  O76  1  0.51029900  0.02258400  0.11342800  1
  O  O77  1  0.51063100  0.68913000  0.11351600  1
  O  O78  1  0.64987300  0.78162900  0.38976000  1
  O  O79  1  0.51020600  0.35512800  0.11333300  1
  O  O80  1  0.64724300  0.44682000  0.38651000  1
  O  O81  1  0.85259800  0.21944200  0.61316100  1
  O  O82  1  0.98937100  0.31079900  0.88679000  1
  O  O83  1  0.86061800  0.89029900  0.62064400  1
  O  O84  1  0.98994400  0.97654900  0.87937200  1
  O  O85  1  0.85257100  0.55317200  0.61314200  1
  O  O86  1  0.98947600  0.64457900  0.88689100  1
  O  O87  1  0.71802700  0.24973700  0.06285300  1
  O  O88  1  0.90596100  0.37481600  0.43746100  1
  O  O89  1  0.90577500  0.04115000  0.43728600  1
  O  O90  1  0.71827200  0.58351800  0.06306500  1
  O  O91  1  0.71948600  0.91649900  0.06125300  1
  O  O92  1  0.90555600  0.70837600  0.43712500  1
  O  O93  1  0.84273700  0.15552900  0.24944800  1
  O  O94  1  0.84385800  0.82339500  0.25098900  1
  O  O95  1  0.84278800  0.48923100  0.24962600  1
