# generated using pymatgen
data_UP3HO11
_symmetry_space_group_name_H-M   'P 1'
_cell_length_a   8.78477600
_cell_length_b   9.92462800
_cell_length_c   21.03153851
_cell_angle_alpha   85.85723334
_cell_angle_beta   90.00000000
_cell_angle_gamma   90.00000000
_symmetry_Int_Tables_number   1
_chemical_formula_structural   UP3HO11
_chemical_formula_sum   'U8 P24 H8 O88'
_cell_volume   1828.85694670
_cell_formula_units_Z   8
loop_
 _symmetry_equiv_pos_site_id
 _symmetry_equiv_pos_as_xyz
  1  'x, y, z'
loop_
 _atom_site_type_symbol
 _atom_site_label
 _atom_site_symmetry_multiplicity
 _atom_site_fract_x
 _atom_site_fract_y
 _atom_site_fract_z
 _atom_site_occupancy
  U  U0  1  0.38082200  0.30263300  0.09724700  1
  U  U1  1  0.88082200  0.69736700  0.40275300  1
  U  U2  1  0.61917800  0.69736700  0.90275300  1
  U  U3  1  0.11917800  0.30263300  0.59724700  1
  U  U4  1  0.38339800  0.78977600  0.64347900  1
  U  U5  1  0.88339800  0.21022400  0.85652100  1
  U  U6  1  0.61660200  0.21022400  0.35652100  1
  U  U7  1  0.11660200  0.78977600  0.14347900  1
  P  P8  1  0.25039700  0.13888800  0.94687700  1
  P  P9  1  0.75039700  0.86111200  0.55312300  1
  P  P10  1  0.74960300  0.86111200  0.05312300  1
  P  P11  1  0.24960300  0.13888800  0.44687700  1
  P  P12  1  0.45504200  0.20831100  0.83365500  1
  P  P13  1  0.95504200  0.79168900  0.66634500  1
  P  P14  1  0.54495800  0.79168900  0.16634500  1
  P  P15  1  0.04495800  0.20831100  0.33365500  1
  P  P16  1  0.28049100  0.62071400  0.80972600  1
  P  P17  1  0.78049100  0.37928600  0.69027400  1
  P  P18  1  0.71950900  0.37928600  0.19027400  1
  P  P19  1  0.21950900  0.62071400  0.30972600  1
  P  P20  1  0.20952600  0.35213000  0.76496600  1
  P  P21  1  0.70952600  0.64787000  0.73503400  1
  P  P22  1  0.79047400  0.64787000  0.23503400  1
  P  P23  1  0.29047400  0.35213000  0.26496600  1
  P  P24  1  0.04905100  0.70464200  0.90107900  1
  P  P25  1  0.54905100  0.29535800  0.59892100  1
  P  P26  1  0.95094900  0.29535800  0.09892100  1
  P  P27  1  0.45094900  0.70464200  0.40107900  1
  P  P28  1  0.27828500  0.84801900  0.97915300  1
  P  P29  1  0.77828500  0.15198100  0.52084700  1
  P  P30  1  0.72171500  0.15198100  0.02084700  1
  P  P31  1  0.22171500  0.84801900  0.47915300  1
  H  H32  1  0.48741700  0.98932500  0.82422800  1
  H  H33  1  0.98741700  0.01067500  0.67577200  1
  H  H34  1  0.51258300  0.01067500  0.17577200  1
  H  H35  1  0.01258300  0.98932500  0.32422800  1
  H  H36  1  0.01518900  0.48954200  0.92474600  1
  H  H37  1  0.51518900  0.51045800  0.57525400  1
  H  H38  1  0.98481100  0.51045800  0.07525400  1
  H  H39  1  0.48481100  0.48954200  0.42474600  1
  O  O40  1  0.26614600  0.87097900  0.54620800  1
  O  O41  1  0.76614600  0.12902100  0.95379200  1
  O  O42  1  0.73385400  0.12902100  0.45379200  1
  O  O43  1  0.23385400  0.87097900  0.04620800  1
  O  O44  1  0.15891000  0.45918600  0.55302100  1
  O  O45  1  0.65891000  0.54081400  0.94697900  1
  O  O46  1  0.84109000  0.54081400  0.44697900  1
  O  O47  1  0.34109000  0.45918600  0.05302100  1
  O  O48  1  0.35353600  0.22550700  0.89528500  1
  O  O49  1  0.85353600  0.77449300  0.60471500  1
  O  O50  1  0.64646400  0.77449300  0.10471500  1
  O  O51  1  0.14646400  0.22550700  0.39528500  1
  O  O52  1  0.07537400  0.14367600  0.64313800  1
  O  O53  1  0.57537400  0.85632400  0.85686200  1
  O  O54  1  0.92462600  0.85632400  0.35686200  1
  O  O55  1  0.42462600  0.14367600  0.14313800  1
  O  O56  1  0.40234300  0.59391000  0.85907500  1
  O  O57  1  0.90234300  0.40609000  0.64092500  1
  O  O58  1  0.59765700  0.40609000  0.14092500  1
  O  O59  1  0.09765700  0.59391000  0.35907500  1
  O  O60  1  0.38852700  0.26109300  0.61433000  1
  O  O61  1  0.88852700  0.73890700  0.88567000  1
  O  O62  1  0.61147300  0.73890700  0.38567000  1
  O  O63  1  0.11147300  0.26109300  0.11433000  1
  O  O64  1  0.18400000  0.48392500  0.80402700  1
  O  O65  1  0.68400000  0.51607500  0.69597300  1
  O  O66  1  0.81600000  0.51607500  0.19597300  1
  O  O67  1  0.31600000  0.48392500  0.30402700  1
  O  O68  1  0.38705700  0.31499000  0.78106200  1
  O  O69  1  0.88705700  0.68501000  0.71893800  1
  O  O70  1  0.61294300  0.68501000  0.21893800  1
  O  O71  1  0.11294300  0.31499000  0.28106200  1
  O  O72  1  0.41063100  0.62488900  0.61209700  1
  O  O73  1  0.91063100  0.37511100  0.88790300  1
  O  O74  1  0.58936900  0.37511100  0.38790300  1
  O  O75  1  0.08936900  0.62488900  0.11209700  1
  O  O76  1  0.11156800  0.24221700  0.79562000  1
  O  O77  1  0.61156800  0.75778300  0.70438000  1
  O  O78  1  0.88843200  0.75778300  0.20438000  1
  O  O79  1  0.38843200  0.24221700  0.29562000  1
  O  O80  1  0.32486200  0.99068200  0.94262400  1
  O  O81  1  0.82486200  0.00931800  0.55737600  1
  O  O82  1  0.67513800  0.00931800  0.05737600  1
  O  O83  1  0.17513800  0.99068200  0.44262400  1
  O  O84  1  0.36271400  0.95358100  0.67322800  1
  O  O85  1  0.86271400  0.04641900  0.82677200  1
  O  O86  1  0.63728600  0.04641900  0.32677200  1
  O  O87  1  0.13728600  0.95358100  0.17322800  1
  O  O88  1  0.42306900  0.06908100  0.80775700  1
  O  O89  1  0.92306900  0.93091900  0.69224300  1
  O  O90  1  0.57693100  0.93091900  0.19224300  1
  O  O91  1  0.07693100  0.06908100  0.30775700  1
  O  O92  1  0.11508200  0.75528600  0.65294500  1
  O  O93  1  0.61508200  0.24471400  0.84705500  1
  O  O94  1  0.88491800  0.24471400  0.34705500  1
  O  O95  1  0.38491800  0.75528600  0.15294500  1
  O  O96  1  0.08880300  0.13623700  0.92427500  1
  O  O97  1  0.58880300  0.86376300  0.57572500  1
  O  O98  1  0.91119700  0.86376300  0.07572500  1
  O  O99  1  0.41119700  0.13623700  0.42427500  1
  O  O100  1  0.21647100  0.19065500  0.51033100  1
  O  O101  1  0.71647100  0.80934500  0.98966900  1
  O  O102  1  0.78352900  0.80934500  0.48966900  1
  O  O103  1  0.28352900  0.19065500  0.01033100  1
  O  O104  1  0.08035600  0.56617700  0.93847900  1
  O  O105  1  0.58035600  0.43382300  0.56152100  1
  O  O106  1  0.91964400  0.43382300  0.06152100  1
  O  O107  1  0.41964400  0.56617700  0.43847900  1
  O  O108  1  0.12135900  0.81422400  0.94251900  1
  O  O109  1  0.62135900  0.18577600  0.55748100  1
  O  O110  1  0.87864100  0.18577600  0.05748100  1
  O  O111  1  0.37864100  0.81422400  0.44251900  1
  O  O112  1  0.14780600  0.71442300  0.83686500  1
  O  O113  1  0.64780600  0.28557700  0.66313500  1
  O  O114  1  0.85219400  0.28557700  0.16313500  1
  O  O115  1  0.35219400  0.71442300  0.33686500  1
  O  O116  1  0.19904400  0.39076200  0.69506400  1
  O  O117  1  0.69904400  0.60923800  0.80493600  1
  O  O118  1  0.80095600  0.60923800  0.30493600  1
  O  O119  1  0.30095600  0.39076200  0.19506400  1
  O  O120  1  0.32398900  0.68176300  0.74549300  1
  O  O121  1  0.82398900  0.31823700  0.75450700  1
  O  O122  1  0.67601100  0.31823700  0.25450700  1
  O  O123  1  0.17601100  0.68176300  0.24549300  1
  O  O124  1  0.40052300  0.74933100  0.96581100  1
  O  O125  1  0.90052300  0.25066900  0.53418900  1
  O  O126  1  0.59947700  0.25066900  0.03418900  1
  O  O127  1  0.09947700  0.74933100  0.46581100  1
