# generated using pymatgen
data_ZrTlCuSe3
_symmetry_space_group_name_H-M   'P 1'
_cell_length_a   7.70405312
_cell_length_b   7.70405312
_cell_length_c   10.20102500
_cell_angle_alpha   90.00000000
_cell_angle_beta   90.00000000
_cell_angle_gamma   150.86486998
_symmetry_Int_Tables_number   1
_chemical_formula_structural   ZrTlCuSe3
_chemical_formula_sum   'Zr2 Tl2 Cu2 Se6'
_cell_volume   294.77882432
_cell_formula_units_Z   2
loop_
 _symmetry_equiv_pos_site_id
 _symmetry_equiv_pos_as_xyz
  1  'x, y, z'
loop_
 _atom_site_type_symbol
 _atom_site_label
 _atom_site_symmetry_multiplicity
 _atom_site_fract_x
 _atom_site_fract_y
 _atom_site_fract_z
 _atom_site_occupancy
  Zr  Zr0  1  0.00000000  0.00000000  0.50000000  1
  Zr  Zr1  1  0.00000000  0.00000000  0.00000000  1
  Tl  Tl2  1  0.75205900  0.24794100  0.25000000  1
  Tl  Tl3  1  0.24794100  0.75205900  0.75000000  1
  Cu  Cu4  1  0.53393600  0.46606400  0.75000000  1
  Cu  Cu5  1  0.46606400  0.53393600  0.25000000  1
  Se  Se6  1  0.37532800  0.62467200  0.05209300  1
  Se  Se7  1  0.62467200  0.37532800  0.94790700  1
  Se  Se8  1  0.62467200  0.37532800  0.55209300  1
  Se  Se9  1  0.37532800  0.62467200  0.44790700  1
  Se  Se10  1  0.93209500  0.06790500  0.75000000  1
  Se  Se11  1  0.06790500  0.93209500  0.25000000  1
