# generated using pymatgen
data_Li3H6Ir
_symmetry_space_group_name_H-M   'P 1'
_cell_length_a   4.76027500
_cell_length_b   8.49664400
_cell_length_c   8.54999000
_cell_angle_alpha   90.00000000
_cell_angle_beta   90.00000000
_cell_angle_gamma   90.00000000
_symmetry_Int_Tables_number   1
_chemical_formula_structural   Li3H6Ir
_chemical_formula_sum   'Li12 H24 Ir4'
_cell_volume   345.81599078
_cell_formula_units_Z   4
loop_
 _symmetry_equiv_pos_site_id
 _symmetry_equiv_pos_as_xyz
  1  'x, y, z'
loop_
 _atom_site_type_symbol
 _atom_site_label
 _atom_site_symmetry_multiplicity
 _atom_site_fract_x
 _atom_site_fract_y
 _atom_site_fract_z
 _atom_site_occupancy
  Li  Li0  1  0.25000000  0.54189300  0.87122700  1
  Li  Li1  1  0.25000000  0.04189300  0.62877300  1
  Li  Li2  1  0.75000000  0.45810700  0.12877300  1
  Li  Li3  1  0.75000000  0.95810700  0.37122700  1
  Li  Li4  1  0.25000000  0.89353200  0.97532800  1
  Li  Li5  1  0.25000000  0.39353200  0.52467200  1
  Li  Li6  1  0.75000000  0.10646800  0.02467200  1
  Li  Li7  1  0.75000000  0.60646800  0.47532800  1
  Li  Li8  1  0.25000000  0.72678100  0.25738100  1
  Li  Li9  1  0.25000000  0.22678100  0.24261900  1
  Li  Li10  1  0.75000000  0.27321900  0.74261900  1
  Li  Li11  1  0.75000000  0.77321900  0.75738100  1
  H  H12  1  0.49883000  0.84392900  0.52888300  1
  H  H13  1  0.00117000  0.34392900  0.97111700  1
  H  H14  1  0.99883000  0.15607100  0.47111700  1
  H  H15  1  0.50117000  0.65607100  0.02888300  1
  H  H16  1  0.50117000  0.15607100  0.47111700  1
  H  H17  1  0.99883000  0.65607100  0.02888300  1
  H  H18  1  0.00117000  0.84392900  0.52888300  1
  H  H19  1  0.49883000  0.34392900  0.97111700  1
  H  H20  1  0.49312500  0.60411800  0.67744700  1
  H  H21  1  0.00687500  0.10411800  0.82255300  1
  H  H22  1  0.99312500  0.39588200  0.32255300  1
  H  H23  1  0.50687500  0.89588200  0.17744700  1
  H  H24  1  0.50687500  0.39588200  0.32255300  1
  H  H25  1  0.99312500  0.89588200  0.17744700  1
  H  H26  1  0.00687500  0.60411800  0.67744700  1
  H  H27  1  0.49312500  0.10411800  0.82255300  1
  H  H28  1  0.25000000  0.61073100  0.44269800  1
  H  H29  1  0.25000000  0.11073100  0.05730200  1
  H  H30  1  0.75000000  0.38926900  0.55730200  1
  H  H31  1  0.75000000  0.88926900  0.94269800  1
  H  H32  1  0.25000000  0.83589400  0.76156200  1
  H  H33  1  0.25000000  0.33589400  0.73843800  1
  H  H34  1  0.75000000  0.16410600  0.23843800  1
  H  H35  1  0.75000000  0.66410600  0.26156200  1
  Ir  Ir36  1  0.25000000  0.72470100  0.60206900  1
  Ir  Ir37  1  0.25000000  0.22470100  0.89793100  1
  Ir  Ir38  1  0.75000000  0.27529900  0.39793100  1
  Ir  Ir39  1  0.75000000  0.77529900  0.10206900  1
