# generated using pymatgen
data_MgCo2
_symmetry_space_group_name_H-M   'P 1'
_cell_length_a   4.83426672
_cell_length_b   4.83426672
_cell_length_c   7.85542900
_cell_angle_alpha   90.00000000
_cell_angle_beta   90.00000000
_cell_angle_gamma   120.00000990
_symmetry_Int_Tables_number   1
_chemical_formula_structural   MgCo2
_chemical_formula_sum   'Mg4 Co8'
_cell_volume   158.98703591
_cell_formula_units_Z   4
loop_
 _symmetry_equiv_pos_site_id
 _symmetry_equiv_pos_as_xyz
  1  'x, y, z'
loop_
 _atom_site_type_symbol
 _atom_site_label
 _atom_site_symmetry_multiplicity
 _atom_site_fract_x
 _atom_site_fract_y
 _atom_site_fract_z
 _atom_site_occupancy
  Mg  Mg0  1  0.33333300  0.66666700  0.06334300  1
  Mg  Mg1  1  0.33333300  0.66666700  0.43665700  1
  Mg  Mg2  1  0.66666700  0.33333300  0.56334300  1
  Mg  Mg3  1  0.66666700  0.33333300  0.93665700  1
  Co  Co4  1  0.00000000  0.00000000  0.00000000  1
  Co  Co5  1  0.34204100  0.17102000  0.25000000  1
  Co  Co6  1  0.82898000  0.17102000  0.25000000  1
  Co  Co7  1  0.82898000  0.65795900  0.25000000  1
  Co  Co8  1  0.00000000  0.00000000  0.50000000  1
  Co  Co9  1  0.17102000  0.34204100  0.75000000  1
  Co  Co10  1  0.17102000  0.82898000  0.75000000  1
  Co  Co11  1  0.65795900  0.82898000  0.75000000  1
