# generated using pymatgen
data_Na3CrP8O23
_symmetry_space_group_name_H-M   'P 1'
_cell_length_a   12.14451200
_cell_length_b   12.14451200
_cell_length_c   12.14451200
_cell_angle_alpha   90.00000000
_cell_angle_beta   90.00000000
_cell_angle_gamma   90.00000000
_symmetry_Int_Tables_number   1
_chemical_formula_structural   Na3CrP8O23
_chemical_formula_sum   'Na12 Cr4 P32 O92'
_cell_volume   1791.18401580
_cell_formula_units_Z   4
loop_
 _symmetry_equiv_pos_site_id
 _symmetry_equiv_pos_as_xyz
  1  'x, y, z'
loop_
 _atom_site_type_symbol
 _atom_site_label
 _atom_site_symmetry_multiplicity
 _atom_site_fract_x
 _atom_site_fract_y
 _atom_site_fract_z
 _atom_site_occupancy
  Na  Na0  1  0.37500000  0.95571700  0.79428300  1
  Na  Na1  1  0.87500000  0.54428300  0.20571700  1
  Na  Na2  1  0.04428300  0.29428300  0.12500000  1
  Na  Na3  1  0.95571700  0.79428300  0.37500000  1
  Na  Na4  1  0.20571700  0.87500000  0.54428300  1
  Na  Na5  1  0.29428300  0.12500000  0.04428300  1
  Na  Na6  1  0.45571700  0.70571700  0.62500000  1
  Na  Na7  1  0.79428300  0.37500000  0.95571700  1
  Na  Na8  1  0.70571700  0.62500000  0.45571700  1
  Na  Na9  1  0.54428300  0.20571700  0.87500000  1
  Na  Na10  1  0.62500000  0.45571700  0.70571700  1
  Na  Na11  1  0.12500000  0.04428300  0.29428300  1
  Cr  Cr12  1  0.87500000  0.12500000  0.62500000  1
  Cr  Cr13  1  0.12500000  0.62500000  0.87500000  1
  Cr  Cr14  1  0.62500000  0.87500000  0.12500000  1
  Cr  Cr15  1  0.37500000  0.37500000  0.37500000  1
  P  P16  1  0.06881500  0.36055300  0.85419400  1
  P  P17  1  0.89580600  0.38944700  0.68118500  1
  P  P18  1  0.36055300  0.85419400  0.06881500  1
  P  P19  1  0.86055300  0.64580600  0.93118500  1
  P  P20  1  0.63944700  0.35419400  0.43118500  1
  P  P21  1  0.64580600  0.93118500  0.86055300  1
  P  P22  1  0.43118500  0.63944700  0.35419400  1
  P  P23  1  0.93118500  0.86055300  0.64580600  1
  P  P24  1  0.85419400  0.06881500  0.36055300  1
  P  P25  1  0.60419400  0.61055300  0.18118500  1
  P  P26  1  0.35419400  0.43118500  0.63944700  1
  P  P27  1  0.14580600  0.56881500  0.13944700  1
  P  P28  1  0.81881500  0.10419400  0.88944700  1
  P  P29  1  0.39580600  0.11055300  0.31881500  1
  P  P30  1  0.10419400  0.88944700  0.81881500  1
  P  P31  1  0.68118500  0.89580600  0.38944700  1
  P  P32  1  0.31881500  0.39580600  0.11055300  1
  P  P33  1  0.88944700  0.81881500  0.10419400  1
  P  P34  1  0.38944700  0.68118500  0.89580600  1
  P  P35  1  0.13944700  0.14580600  0.56881500  1
  P  P36  1  0.18118500  0.60419400  0.61055300  1
  P  P37  1  0.11055300  0.31881500  0.39580600  1
  P  P38  1  0.61055300  0.18118500  0.60419400  1
  P  P39  1  0.01756300  0.01756300  0.01756300  1
  P  P40  1  0.26756300  0.23243700  0.76756300  1
  P  P41  1  0.76756300  0.26756300  0.23243700  1
  P  P42  1  0.23243700  0.76756300  0.26756300  1
  P  P43  1  0.48243700  0.98243700  0.51756300  1
  P  P44  1  0.51756300  0.48243700  0.98243700  1
  P  P45  1  0.98243700  0.51756300  0.48243700  1
  P  P46  1  0.73243700  0.73243700  0.73243700  1
  P  P47  1  0.56881500  0.13944700  0.14580600  1
  O  O48  1  0.66195100  0.66195100  0.66195100  1
  O  O49  1  0.91195100  0.58804900  0.41195100  1
  O  O50  1  0.58804900  0.41195100  0.91195100  1
  O  O51  1  0.41195100  0.91195100  0.58804900  1
  O  O52  1  0.16195100  0.83804900  0.33804900  1
  O  O53  1  0.83804900  0.33804900  0.16195100  1
  O  O54  1  0.33804900  0.16195100  0.83804900  1
  O  O55  1  0.08804900  0.08804900  0.08804900  1
  O  O56  1  0.43700400  0.51132900  0.68046700  1
  O  O57  1  0.93700400  0.98867100  0.31953300  1
  O  O58  1  0.51132900  0.68046700  0.43700400  1
  O  O59  1  0.48867100  0.18046700  0.06299600  1
  O  O60  1  0.68046700  0.43700400  0.51132900  1
  O  O61  1  0.81953300  0.56299600  0.01132900  1
  O  O62  1  0.18700400  0.93046700  0.73867100  1
  O  O63  1  0.68700400  0.56953300  0.26132900  1
  O  O64  1  0.81299600  0.43046700  0.76132900  1
  O  O65  1  0.56953300  0.26132900  0.68700400  1
  O  O66  1  0.76132900  0.81299600  0.43046700  1
  O  O67  1  0.26132900  0.68700400  0.56953300  1
  O  O68  1  0.93046700  0.73867100  0.18700400  1
  O  O69  1  0.73867100  0.18700400  0.93046700  1
  O  O70  1  0.43046700  0.76132900  0.81299600  1
  O  O71  1  0.06953300  0.23867100  0.31299600  1
  O  O72  1  0.23867100  0.31299600  0.06953300  1
  O  O73  1  0.31953300  0.93700400  0.98867100  1
  O  O74  1  0.18046700  0.06299600  0.48867100  1
  O  O75  1  0.01132900  0.81953300  0.56299600  1
  O  O76  1  0.98867100  0.31953300  0.93700400  1
  O  O77  1  0.06299600  0.48867100  0.18046700  1
  O  O78  1  0.56299600  0.01132900  0.81953300  1
  O  O79  1  0.31299600  0.06953300  0.23867100  1
  O  O80  1  0.62500000  0.23348900  0.48348900  1
  O  O81  1  0.76651100  0.98348900  0.87500000  1
  O  O82  1  0.73909100  0.32669700  0.34461100  1
  O  O83  1  0.48348900  0.62500000  0.23348900  1
  O  O84  1  0.23348900  0.48348900  0.62500000  1
  O  O85  1  0.51651100  0.12500000  0.26651100  1
  O  O86  1  0.98348900  0.87500000  0.76651100  1
  O  O87  1  0.73348900  0.01651100  0.37500000  1
  O  O88  1  0.26651100  0.51651100  0.12500000  1
  O  O89  1  0.87500000  0.76651100  0.98348900  1
  O  O90  1  0.37500000  0.73348900  0.01651100  1
  O  O91  1  0.12500000  0.26651100  0.51651100  1
  O  O92  1  0.32669700  0.34461100  0.73909100  1
  O  O93  1  0.82669700  0.15538900  0.26090900  1
  O  O94  1  0.34461100  0.73909100  0.32669700  1
  O  O95  1  0.65538900  0.23909100  0.17330300  1
  O  O96  1  0.03895900  0.12124300  0.63672100  1
  O  O97  1  0.28895900  0.61327900  0.87124300  1
  O  O98  1  0.78895900  0.88672100  0.12875700  1
  O  O99  1  0.38672100  0.37124300  0.21104100  1
  O  O100  1  0.61327900  0.87124300  0.28895900  1
  O  O101  1  0.12875700  0.78895900  0.88672100  1
  O  O102  1  0.37124300  0.21104100  0.38672100  1
  O  O103  1  0.63672100  0.03895900  0.12124300  1
  O  O104  1  0.12124300  0.63672100  0.03895900  1
  O  O105  1  0.37875700  0.36327900  0.53895900  1
  O  O106  1  0.13672100  0.46104100  0.87875700  1
  O  O107  1  0.87875700  0.13672100  0.46104100  1
  O  O108  1  0.86327900  0.96104100  0.62124300  1
  O  O109  1  0.36327900  0.53895900  0.37875700  1
  O  O110  1  0.62124300  0.86327900  0.96104100  1
  O  O111  1  0.53895900  0.37875700  0.36327900  1
  O  O112  1  0.96104100  0.62124300  0.86327900  1
  O  O113  1  0.46104100  0.87875700  0.13672100  1
  O  O114  1  0.87124300  0.28895900  0.61327900  1
  O  O115  1  0.62875700  0.71104100  0.11327900  1
  O  O116  1  0.88672100  0.12875700  0.78895900  1
  O  O117  1  0.11327900  0.62875700  0.71104100  1
  O  O118  1  0.21104100  0.38672100  0.37124300  1
  O  O119  1  0.71104100  0.11327900  0.62875700  1
  O  O120  1  0.42330300  0.01090900  0.40538900  1
  O  O121  1  0.67330300  0.84461100  0.76090900  1
  O  O122  1  0.17330300  0.65538900  0.23909100  1
  O  O123  1  0.15538900  0.26090900  0.82669700  1
  O  O124  1  0.84461100  0.76090900  0.67330300  1
  O  O125  1  0.23909100  0.17330300  0.65538900  1
  O  O126  1  0.26090900  0.82669700  0.15538900  1
  O  O127  1  0.40538900  0.42330300  0.01090900  1
  O  O128  1  0.01090900  0.40538900  0.42330300  1
  O  O129  1  0.48909100  0.59461100  0.92330300  1
  O  O130  1  0.90538900  0.07669700  0.98909100  1
  O  O131  1  0.98909100  0.90538900  0.07669700  1
  O  O132  1  0.09461100  0.57669700  0.51090900  1
  O  O133  1  0.59461100  0.92330300  0.48909100  1
  O  O134  1  0.51090900  0.09461100  0.57669700  1
  O  O135  1  0.92330300  0.48909100  0.59461100  1
  O  O136  1  0.57669700  0.51090900  0.09461100  1
  O  O137  1  0.07669700  0.98909100  0.90538900  1
  O  O138  1  0.76090900  0.67330300  0.84461100  1
  O  O139  1  0.01651100  0.37500000  0.73348900  1
