# generated using pymatgen
data_Ca2PN3
_symmetry_space_group_name_H-M   'P 1'
_cell_length_a   5.81369657
_cell_length_b   5.81369657
_cell_length_c   11.31695300
_cell_angle_alpha   90.00000000
_cell_angle_beta   90.00000000
_cell_angle_gamma   126.60122056
_symmetry_Int_Tables_number   1
_chemical_formula_structural   Ca2PN3
_chemical_formula_sum   'Ca8 P4 N12'
_cell_volume   307.07480238
_cell_formula_units_Z   4
loop_
 _symmetry_equiv_pos_site_id
 _symmetry_equiv_pos_as_xyz
  1  'x, y, z'
loop_
 _atom_site_type_symbol
 _atom_site_label
 _atom_site_symmetry_multiplicity
 _atom_site_fract_x
 _atom_site_fract_y
 _atom_site_fract_z
 _atom_site_occupancy
  Ca  Ca0  1  0.36235500  0.63764500  0.07405200  1
  Ca  Ca1  1  0.86235500  0.13764500  0.42594800  1
  Ca  Ca2  1  0.13764500  0.86235500  0.57405200  1
  Ca  Ca3  1  0.63764500  0.36235500  0.92594800  1
  Ca  Ca4  1  0.44764700  0.55235300  0.64199200  1
  Ca  Ca5  1  0.55235300  0.44764700  0.35800800  1
  Ca  Ca6  1  0.05235300  0.94764700  0.14199200  1
  Ca  Ca7  1  0.94764700  0.05235300  0.85800800  1
  P  P8  1  0.75564300  0.24435700  0.66531700  1
  P  P9  1  0.74435700  0.25564300  0.16531700  1
  P  P10  1  0.24435700  0.75564300  0.33468300  1
  P  P11  1  0.25564300  0.74435700  0.83468300  1
  N  N12  1  0.96116400  0.53883600  0.75000000  1
  N  N13  1  0.53883600  0.96116400  0.25000000  1
  N  N14  1  0.03883600  0.46116400  0.25000000  1
  N  N15  1  0.46116400  0.03883600  0.75000000  1
  N  N16  1  0.41107200  0.58892800  0.85955200  1
  N  N17  1  0.58892800  0.41107200  0.14044800  1
  N  N18  1  0.08892800  0.91107200  0.35955200  1
  N  N19  1  0.66015900  0.33984100  0.55068300  1
  N  N20  1  0.16015900  0.83984100  0.94931700  1
  N  N21  1  0.83984100  0.16015900  0.05068300  1
  N  N22  1  0.33984100  0.66015900  0.44931700  1
  N  N23  1  0.91107200  0.08892800  0.64044800  1
