# generated using pymatgen
data_RePO5
_symmetry_space_group_name_H-M   'P 1'
_cell_length_a   8.81499077
_cell_length_b   8.81499077
_cell_length_c   5.25805198
_cell_angle_alpha   89.56458408
_cell_angle_beta   89.56458408
_cell_angle_gamma   89.68036194
_symmetry_Int_Tables_number   1
_chemical_formula_structural   RePO5
_chemical_formula_sum   'Re4 P4 O20'
_cell_volume   408.54217584
_cell_formula_units_Z   4
loop_
 _symmetry_equiv_pos_site_id
 _symmetry_equiv_pos_as_xyz
  1  'x, y, z'
loop_
 _atom_site_type_symbol
 _atom_site_label
 _atom_site_symmetry_multiplicity
 _atom_site_fract_x
 _atom_site_fract_y
 _atom_site_fract_z
 _atom_site_occupancy
  Re  Re0  1  0.04606800  0.24773000  0.73815900  1
  Re  Re1  1  0.75227000  0.95393200  0.76184100  1
  Re  Re2  1  0.95393200  0.75227000  0.26184100  1
  Re  Re3  1  0.24773000  0.04606800  0.23815900  1
  P  P4  1  0.16394000  0.60367400  0.78000200  1
  P  P5  1  0.39632600  0.83606000  0.71999800  1
  P  P6  1  0.83606000  0.39632600  0.21999800  1
  P  P7  1  0.60367400  0.16394000  0.28000200  1
  O  O8  1  0.30752500  0.93317900  0.90754500  1
  O  O9  1  0.06682100  0.69247500  0.59245500  1
  O  O10  1  0.69247500  0.06682100  0.09245500  1
  O  O11  1  0.93317900  0.30752500  0.40754500  1
  O  O12  1  0.66284700  0.33715300  0.25000000  1
  O  O13  1  0.33715300  0.66284700  0.75000000  1
  O  O14  1  0.56498100  0.82240000  0.78795200  1
  O  O15  1  0.17760000  0.43501900  0.71204800  1
  O  O16  1  0.43501900  0.17760000  0.21204800  1
  O  O17  1  0.82240000  0.56498100  0.28795200  1
  O  O18  1  0.88635800  0.37379000  0.94139900  1
  O  O19  1  0.62621000  0.11364200  0.55860100  1
  O  O20  1  0.11364200  0.62621000  0.05860100  1
  O  O21  1  0.37379000  0.88635800  0.44139900  1
  O  O22  1  0.91546600  0.08453400  0.75000000  1
  O  O23  1  0.08453400  0.91546600  0.25000000  1
  O  O24  1  0.18251400  0.14674500  0.52439600  1
  O  O25  1  0.85325500  0.81748600  0.97560400  1
  O  O26  1  0.81748600  0.85325500  0.47560400  1
  O  O27  1  0.14674500  0.18251400  0.02439600  1
