# generated using pymatgen
data_RbZnH2Se2ClO6
_symmetry_space_group_name_H-M   'P 1'
_cell_length_a   6.10784500
_cell_length_b   6.53671800
_cell_length_c   10.94837851
_cell_angle_alpha   76.82747563
_cell_angle_beta   90.00000000
_cell_angle_gamma   90.00000000
_symmetry_Int_Tables_number   1
_chemical_formula_structural   RbZnH2Se2ClO6
_chemical_formula_sum   'Rb2 Zn2 H4 Se4 Cl2 O12'
_cell_volume   425.61557234
_cell_formula_units_Z   2
loop_
 _symmetry_equiv_pos_site_id
 _symmetry_equiv_pos_as_xyz
  1  'x, y, z'
loop_
 _atom_site_type_symbol
 _atom_site_label
 _atom_site_symmetry_multiplicity
 _atom_site_fract_x
 _atom_site_fract_y
 _atom_site_fract_z
 _atom_site_occupancy
  Rb  Rb0  1  0.83505200  0.00000000  0.25000000  1
  Rb  Rb1  1  0.16494800  0.00000000  0.75000000  1
  Zn  Zn2  1  0.43351800  0.50000000  0.25000000  1
  Zn  Zn3  1  0.56648200  0.50000000  0.75000000  1
  H  H4  1  0.33862800  0.93221800  0.08999400  1
  H  H5  1  0.33862800  0.06778200  0.41000600  1
  H  H6  1  0.66137200  0.93221800  0.58999400  1
  H  H7  1  0.66137200  0.06778200  0.91000600  1
  Se  Se8  1  0.31215300  0.29678200  0.01002900  1
  Se  Se9  1  0.31215300  0.70321800  0.48997100  1
  Se  Se10  1  0.68784700  0.29678200  0.51002900  1
  Se  Se11  1  0.68784700  0.70321800  0.98997100  1
  Cl  Cl12  1  0.05571700  0.50000000  0.25000000  1
  Cl  Cl13  1  0.94428300  0.50000000  0.75000000  1
  O  O14  1  0.21286400  0.03635300  0.07633700  1
  O  O15  1  0.51525600  0.32002700  0.11417400  1
  O  O16  1  0.54338900  0.75735500  0.11568900  1
  O  O17  1  0.54338900  0.24264500  0.38431100  1
  O  O18  1  0.51525600  0.67997300  0.38582600  1
  O  O19  1  0.21286400  0.96364700  0.42366300  1
  O  O20  1  0.78713600  0.03635300  0.57633700  1
  O  O21  1  0.48474400  0.32002700  0.61417400  1
  O  O22  1  0.45661100  0.75735500  0.61568900  1
  O  O23  1  0.45661100  0.24264500  0.88431100  1
  O  O24  1  0.48474400  0.67997300  0.88582600  1
  O  O25  1  0.78713600  0.96364700  0.92366300  1
