# generated using pymatgen
data_SnH6(NF2)2
_symmetry_space_group_name_H-M   'P 1'
_cell_length_a   6.38353000
_cell_length_b   5.24624300
_cell_length_c   8.46289831
_cell_angle_alpha   66.26997888
_cell_angle_beta   90.00000000
_cell_angle_gamma   90.00000000
_symmetry_Int_Tables_number   1
_chemical_formula_structural   SnH6(NF2)2
_chemical_formula_sum   'Sn2 H12 N4 F8'
_cell_volume   259.45613265
_cell_formula_units_Z   2
loop_
 _symmetry_equiv_pos_site_id
 _symmetry_equiv_pos_as_xyz
  1  'x, y, z'
loop_
 _atom_site_type_symbol
 _atom_site_label
 _atom_site_symmetry_multiplicity
 _atom_site_fract_x
 _atom_site_fract_y
 _atom_site_fract_z
 _atom_site_occupancy
  Sn  Sn0  1  0.50000000  0.00000000  0.50000000  1
  Sn  Sn1  1  0.00000000  0.00000000  0.00000000  1
  H  H2  1  0.26482100  0.53858100  0.57175100  1
  H  H3  1  0.23517900  0.53858100  0.07175100  1
  H  H4  1  0.73517900  0.46141900  0.42824900  1
  H  H5  1  0.76482100  0.46141900  0.92824900  1
  H  H6  1  0.12293000  0.81597500  0.45504100  1
  H  H7  1  0.37707000  0.81597500  0.95504100  1
  H  H8  1  0.87707000  0.18402500  0.54495900  1
  H  H9  1  0.62293000  0.18402500  0.04495900  1
  H  H10  1  0.15085400  0.72806700  0.66877200  1
  H  H11  1  0.34914600  0.72806700  0.16877200  1
  H  H12  1  0.84914600  0.27193300  0.33122800  1
  H  H13  1  0.65085400  0.27193300  0.83122800  1
  N  N14  1  0.22406500  0.73659700  0.55850000  1
  N  N15  1  0.27593500  0.73659700  0.05850000  1
  N  N16  1  0.77593500  0.26340300  0.44150000  1
  N  N17  1  0.72406500  0.26340300  0.94150000  1
  F  F18  1  0.68731700  0.66315600  0.57568800  1
  F  F19  1  0.81268300  0.66315600  0.07568800  1
  F  F20  1  0.31268300  0.33684400  0.42431200  1
  F  F21  1  0.18731700  0.33684400  0.92431200  1
  F  F22  1  0.49869200  0.00856400  0.25901100  1
  F  F23  1  0.00130800  0.00856400  0.75901100  1
  F  F24  1  0.50130800  0.99143600  0.74098900  1
  F  F25  1  0.99869200  0.99143600  0.24098900  1
