# generated using pymatgen
data_Sr2GaGeN
_symmetry_space_group_name_H-M   'P 1'
_cell_length_a   4.10269000
_cell_length_b   6.96182500
_cell_length_c   8.81559647
_cell_angle_alpha   71.42712328
_cell_angle_beta   90.00000000
_cell_angle_gamma   90.00000000
_symmetry_Int_Tables_number   1
_chemical_formula_structural   Sr2GaGeN
_chemical_formula_sum   'Sr4 Ga2 Ge2 N2'
_cell_volume   238.67936365
_cell_formula_units_Z   2
loop_
 _symmetry_equiv_pos_site_id
 _symmetry_equiv_pos_as_xyz
  1  'x, y, z'
loop_
 _atom_site_type_symbol
 _atom_site_label
 _atom_site_symmetry_multiplicity
 _atom_site_fract_x
 _atom_site_fract_y
 _atom_site_fract_z
 _atom_site_occupancy
  Sr  Sr0  1  0.75000000  0.70186500  0.03403600  1
  Sr  Sr1  1  0.25000000  0.31457800  0.37822300  1
  Sr  Sr2  1  0.75000000  0.68542200  0.62177700  1
  Sr  Sr3  1  0.25000000  0.29813500  0.96596400  1
  Ga  Ga4  1  0.75000000  0.03670200  0.24769800  1
  Ga  Ga5  1  0.25000000  0.96329800  0.75230200  1
  Ge  Ge6  1  0.25000000  0.82304200  0.29966200  1
  Ge  Ge7  1  0.75000000  0.17695800  0.70033800  1
  N  N8  1  0.75000000  0.32359100  0.17089000  1
  N  N9  1  0.25000000  0.67640900  0.82911000  1
