# generated using pymatgen
data_Yb2Ni12As7
_symmetry_space_group_name_H-M   'P 1'
_cell_length_a   9.36054546
_cell_length_b   9.36054546
_cell_length_c   3.79663400
_cell_angle_alpha   90.00000000
_cell_angle_beta   90.00000000
_cell_angle_gamma   119.99999615
_symmetry_Int_Tables_number   1
_chemical_formula_structural   Yb2Ni12As7
_chemical_formula_sum   'Yb2 Ni12 As7'
_cell_volume   288.09232887
_cell_formula_units_Z   1
loop_
 _symmetry_equiv_pos_site_id
 _symmetry_equiv_pos_as_xyz
  1  'x, y, z'
loop_
 _atom_site_type_symbol
 _atom_site_label
 _atom_site_symmetry_multiplicity
 _atom_site_fract_x
 _atom_site_fract_y
 _atom_site_fract_z
 _atom_site_occupancy
  Yb  Yb0  1  0.66666700  0.33333300  0.00000000  1
  Yb  Yb1  1  0.00000000  0.00000000  0.50000000  1
  Ni  Ni2  1  0.70800600  0.09090300  0.50000000  1
  Ni  Ni3  1  0.90909700  0.61710300  0.50000000  1
  Ni  Ni4  1  0.38289700  0.29199400  0.50000000  1
  Ni  Ni5  1  0.77340700  0.72153100  0.00000000  1
  Ni  Ni6  1  0.27846900  0.05187500  0.00000000  1
  Ni  Ni7  1  0.94812500  0.22659300  0.00000000  1
  Ni  Ni8  1  0.54625900  0.76261900  0.50000000  1
  Ni  Ni9  1  0.23738100  0.78364000  0.50000000  1
  Ni  Ni10  1  0.21636000  0.45374100  0.50000000  1
  Ni  Ni11  1  0.48544600  0.94756000  0.00000000  1
  Ni  Ni12  1  0.05244000  0.53788600  0.00000000  1
  Ni  Ni13  1  0.46211400  0.51455400  0.00000000  1
  As  As14  1  0.33333300  0.66666700  0.00000000  1
  As  As15  1  0.44288500  0.07630200  0.50000000  1
  As  As16  1  0.92369800  0.36658300  0.50000000  1
  As  As17  1  0.63341700  0.55711500  0.50000000  1
  As  As18  1  0.73730200  0.95083500  0.00000000  1
  As  As19  1  0.04916500  0.78646700  0.00000000  1
  As  As20  1  0.21353300  0.26269800  0.00000000  1
