# generated using pymatgen
data_K2CrH2F8
_symmetry_space_group_name_H-M   'P 1'
_cell_length_a   8.10116400
_cell_length_b   5.34859500
_cell_length_c   8.42657027
_cell_angle_alpha   87.32804317
_cell_angle_beta   90.00000000
_cell_angle_gamma   90.00000000
_symmetry_Int_Tables_number   1
_chemical_formula_structural   K2CrH2F8
_chemical_formula_sum   'K4 Cr2 H4 F16'
_cell_volume   364.72502950
_cell_formula_units_Z   2
loop_
 _symmetry_equiv_pos_site_id
 _symmetry_equiv_pos_as_xyz
  1  'x, y, z'
loop_
 _atom_site_type_symbol
 _atom_site_label
 _atom_site_symmetry_multiplicity
 _atom_site_fract_x
 _atom_site_fract_y
 _atom_site_fract_z
 _atom_site_occupancy
  K  K0  1  0.31310100  0.06612500  0.71858200  1
  K  K1  1  0.81310100  0.93387500  0.78141800  1
  K  K2  1  0.18689900  0.06612500  0.21858200  1
  K  K3  1  0.68689900  0.93387500  0.28141800  1
  Cr  Cr4  1  0.00000000  0.50000000  0.50000000  1
  Cr  Cr5  1  0.50000000  0.50000000  0.00000000  1
  H  H6  1  0.65942300  0.37817500  0.55001000  1
  H  H7  1  0.15942300  0.62182500  0.94999000  1
  H  H8  1  0.84057700  0.37817500  0.05001000  1
  H  H9  1  0.34057700  0.62182500  0.44999000  1
  F  F10  1  0.77228400  0.59447100  0.53295800  1
  F  F11  1  0.59842600  0.21915100  0.55972800  1
  F  F12  1  0.07003900  0.79350400  0.58099500  1
  F  F13  1  0.00525100  0.34944400  0.70064700  1
  F  F14  1  0.50525100  0.65055600  0.79935300  1
  F  F15  1  0.57003900  0.20649600  0.91900500  1
  F  F16  1  0.09842600  0.78084900  0.94027200  1
  F  F17  1  0.27228400  0.40552900  0.96704200  1
  F  F18  1  0.72771600  0.59447100  0.03295800  1
  F  F19  1  0.90157400  0.21915100  0.05972800  1
  F  F20  1  0.42996100  0.79350400  0.08099500  1
  F  F21  1  0.49474900  0.34944400  0.20064700  1
  F  F22  1  0.99474900  0.65055600  0.29935300  1
  F  F23  1  0.92996100  0.20649600  0.41900500  1
  F  F24  1  0.40157400  0.78084900  0.44027200  1
  F  F25  1  0.22771600  0.40552900  0.46704200  1
