# generated using pymatgen
data_TaZn2
_symmetry_space_group_name_H-M   'P 1'
_cell_length_a   5.04750563
_cell_length_b   5.04750563
_cell_length_c   16.32455400
_cell_angle_alpha   90.00000000
_cell_angle_beta   90.00000000
_cell_angle_gamma   119.99999521
_symmetry_Int_Tables_number   1
_chemical_formula_structural   TaZn2
_chemical_formula_sum   'Ta8 Zn16'
_cell_volume   360.18498325
_cell_formula_units_Z   8
loop_
 _symmetry_equiv_pos_site_id
 _symmetry_equiv_pos_as_xyz
  1  'x, y, z'
loop_
 _atom_site_type_symbol
 _atom_site_label
 _atom_site_symmetry_multiplicity
 _atom_site_fract_x
 _atom_site_fract_y
 _atom_site_fract_z
 _atom_site_occupancy
  Ta  Ta0  1  0.00000000  0.00000000  0.09132600  1
  Ta  Ta1  1  0.00000000  0.00000000  0.59132600  1
  Ta  Ta2  1  0.00000000  0.00000000  0.90867400  1
  Ta  Ta3  1  0.00000000  0.00000000  0.40867400  1
  Ta  Ta4  1  0.33333300  0.66666700  0.84365400  1
  Ta  Ta5  1  0.66666700  0.33333300  0.34365400  1
  Ta  Ta6  1  0.66666700  0.33333300  0.15634600  1
  Ta  Ta7  1  0.33333300  0.66666700  0.65634600  1
  Zn  Zn8  1  0.16050200  0.32100400  0.25000000  1
  Zn  Zn9  1  0.83949800  0.67899600  0.75000000  1
  Zn  Zn10  1  0.67899600  0.83949800  0.25000000  1
  Zn  Zn11  1  0.16050200  0.83949800  0.25000000  1
  Zn  Zn12  1  0.83949800  0.16050200  0.75000000  1
  Zn  Zn13  1  0.32100400  0.16050200  0.75000000  1
  Zn  Zn14  1  0.50000000  0.00000000  0.00000000  1
  Zn  Zn15  1  0.50000000  0.00000000  0.50000000  1
  Zn  Zn16  1  0.00000000  0.50000000  0.00000000  1
  Zn  Zn17  1  0.50000000  0.50000000  0.00000000  1
  Zn  Zn18  1  0.50000000  0.50000000  0.50000000  1
  Zn  Zn19  1  0.00000000  0.50000000  0.50000000  1
  Zn  Zn20  1  0.33333300  0.66666700  0.12701200  1
  Zn  Zn21  1  0.66666700  0.33333300  0.62701200  1
  Zn  Zn22  1  0.66666700  0.33333300  0.87298800  1
  Zn  Zn23  1  0.33333300  0.66666700  0.37298800  1
