# generated using pymatgen
data_BaHg3
_symmetry_space_group_name_H-M   'P 1'
_cell_length_a   7.41754353
_cell_length_b   7.41754353
_cell_length_c   5.35378200
_cell_angle_alpha   90.00000000
_cell_angle_beta   90.00000000
_cell_angle_gamma   119.99999585
_symmetry_Int_Tables_number   1
_chemical_formula_structural   BaHg3
_chemical_formula_sum   'Ba2 Hg6'
_cell_volume   255.10063575
_cell_formula_units_Z   2
loop_
 _symmetry_equiv_pos_site_id
 _symmetry_equiv_pos_as_xyz
  1  'x, y, z'
loop_
 _atom_site_type_symbol
 _atom_site_label
 _atom_site_symmetry_multiplicity
 _atom_site_fract_x
 _atom_site_fract_y
 _atom_site_fract_z
 _atom_site_occupancy
  Ba  Ba0  1  0.33333300  0.66666700  0.75000000  1
  Ba  Ba1  1  0.66666700  0.33333300  0.25000000  1
  Hg  Hg2  1  0.14816000  0.29632000  0.25000000  1
  Hg  Hg3  1  0.70368000  0.85184000  0.25000000  1
  Hg  Hg4  1  0.14816000  0.85184000  0.25000000  1
  Hg  Hg5  1  0.85184000  0.70368000  0.75000000  1
  Hg  Hg6  1  0.29632000  0.14816000  0.75000000  1
  Hg  Hg7  1  0.85184000  0.14816000  0.75000000  1
