# generated using pymatgen
data_CdSO4
_symmetry_space_group_name_H-M   'P 1'
_cell_length_a   4.99780598
_cell_length_b   4.99780598
_cell_length_c   7.31344600
_cell_angle_alpha   90.00000000
_cell_angle_beta   90.00000000
_cell_angle_gamma   114.64348870
_symmetry_Int_Tables_number   1
_chemical_formula_structural   CdSO4
_chemical_formula_sum   'Cd2 S2 O8'
_cell_volume   166.03759988
_cell_formula_units_Z   2
loop_
 _symmetry_equiv_pos_site_id
 _symmetry_equiv_pos_as_xyz
  1  'x, y, z'
loop_
 _atom_site_type_symbol
 _atom_site_label
 _atom_site_symmetry_multiplicity
 _atom_site_fract_x
 _atom_site_fract_y
 _atom_site_fract_z
 _atom_site_occupancy
  Cd  Cd0  1  0.00000000  0.00000000  0.00000000  1
  Cd  Cd1  1  0.00000000  0.00000000  0.50000000  1
  S  S2  1  0.64484700  0.35515300  0.75000000  1
  S  S3  1  0.35515300  0.64484700  0.25000000  1
  O  O4  1  0.23424600  0.31184100  0.25000000  1
  O  O5  1  0.76575400  0.68815900  0.75000000  1
  O  O6  1  0.31184100  0.23424600  0.75000000  1
  O  O7  1  0.68815900  0.76575400  0.25000000  1
  O  O8  1  0.26119900  0.73880100  0.41967600  1
  O  O9  1  0.73880100  0.26119900  0.91967600  1
  O  O10  1  0.73880100  0.26119900  0.58032400  1
  O  O11  1  0.26119900  0.73880100  0.08032400  1
