# generated using pymatgen
data_AcSi3
_symmetry_space_group_name_H-M   'P 1'
_cell_length_a   6.52486402
_cell_length_b   6.52486402
_cell_length_c   4.63791500
_cell_angle_alpha   90.00000000
_cell_angle_beta   90.00000000
_cell_angle_gamma   120.00000017
_symmetry_Int_Tables_number   1
_chemical_formula_structural   AcSi3
_chemical_formula_sum   'Ac2 Si6'
_cell_volume   171.00009281
_cell_formula_units_Z   2
loop_
 _symmetry_equiv_pos_site_id
 _symmetry_equiv_pos_as_xyz
  1  'x, y, z'
loop_
 _atom_site_type_symbol
 _atom_site_label
 _atom_site_symmetry_multiplicity
 _atom_site_fract_x
 _atom_site_fract_y
 _atom_site_fract_z
 _atom_site_occupancy
  Ac  Ac0  1  0.33333300  0.66666700  0.75000000  1
  Ac  Ac1  1  0.66666700  0.33333300  0.25000000  1
  Si  Si2  1  0.12807900  0.25615800  0.25000000  1
  Si  Si3  1  0.74384200  0.87192100  0.25000000  1
  Si  Si4  1  0.12807900  0.87192100  0.25000000  1
  Si  Si5  1  0.87192100  0.74384200  0.75000000  1
  Si  Si6  1  0.25615800  0.12807900  0.75000000  1
  Si  Si7  1  0.87192100  0.12807900  0.75000000  1
