# generated using pymatgen
data_Ca5(AlSb3)2
_symmetry_space_group_name_H-M   'P 1'
_cell_length_a   4.49905000
_cell_length_b   12.13205700
_cell_length_c   14.14357800
_cell_angle_alpha   90.00000000
_cell_angle_beta   90.00000000
_cell_angle_gamma   90.00000000
_symmetry_Int_Tables_number   1
_chemical_formula_structural   Ca5(AlSb3)2
_chemical_formula_sum   'Ca10 Al4 Sb12'
_cell_volume   771.99511400
_cell_formula_units_Z   2
loop_
 _symmetry_equiv_pos_site_id
 _symmetry_equiv_pos_as_xyz
  1  'x, y, z'
loop_
 _atom_site_type_symbol
 _atom_site_label
 _atom_site_symmetry_multiplicity
 _atom_site_fract_x
 _atom_site_fract_y
 _atom_site_fract_z
 _atom_site_occupancy
  Ca  Ca0  1  0.50000000  0.09274500  0.74731500  1
  Ca  Ca1  1  0.50000000  0.40725500  0.24731500  1
  Ca  Ca2  1  0.50000000  0.32683900  0.51414400  1
  Ca  Ca3  1  0.50000000  0.90725500  0.25268500  1
  Ca  Ca4  1  0.50000000  0.50000000  0.00000000  1
  Ca  Ca5  1  0.50000000  0.00000000  0.50000000  1
  Ca  Ca6  1  0.50000000  0.17316100  0.01414400  1
  Ca  Ca7  1  0.50000000  0.82683900  0.98585600  1
  Ca  Ca8  1  0.50000000  0.67316100  0.48585600  1
  Ca  Ca9  1  0.50000000  0.59274500  0.75268500  1
  Al  Al10  1  0.00000000  0.16856400  0.21131200  1
  Al  Al11  1  0.00000000  0.83143600  0.78868800  1
  Al  Al12  1  0.00000000  0.66856400  0.28868800  1
  Al  Al13  1  0.00000000  0.33143600  0.71131200  1
  Sb  Sb14  1  0.00000000  0.84390600  0.40683700  1
  Sb  Sb15  1  0.00000000  0.15609400  0.59316300  1
  Sb  Sb16  1  0.00000000  0.65609400  0.90683700  1
  Sb  Sb17  1  0.00000000  0.34390600  0.09316300  1
  Sb  Sb18  1  0.50000000  0.33885100  0.82153000  1
  Sb  Sb19  1  0.50000000  0.66114900  0.17847000  1
  Sb  Sb20  1  0.50000000  0.83885100  0.67847000  1
  Sb  Sb21  1  0.50000000  0.16114900  0.32153000  1
  Sb  Sb22  1  0.00000000  0.52528600  0.60022800  1
  Sb  Sb23  1  0.00000000  0.47471400  0.39977200  1
  Sb  Sb24  1  0.00000000  0.02528600  0.89977200  1
  Sb  Sb25  1  0.00000000  0.97471400  0.10022800  1
