# generated using pymatgen
data_LiNiO2
_symmetry_space_group_name_H-M   'P 1'
_cell_length_a   2.80334762
_cell_length_b   2.94321230
_cell_length_c   9.61834646
_cell_angle_alpha   83.69119703
_cell_angle_beta   90.04349537
_cell_angle_gamma   61.56920305
_symmetry_Int_Tables_number   1
_chemical_formula_structural   LiNiO2
_chemical_formula_sum   'Li2 Ni2 O4'
_cell_volume   69.23754376
_cell_formula_units_Z   2
loop_
 _symmetry_equiv_pos_site_id
 _symmetry_equiv_pos_as_xyz
  1  'x, y, z'
loop_
 _atom_site_type_symbol
 _atom_site_label
 _atom_site_symmetry_multiplicity
 _atom_site_fract_x
 _atom_site_fract_y
 _atom_site_fract_z
 _atom_site_occupancy
  Li  Li0  1  0.74955200  0.50019200  0.24994100  1
  Li  Li1  1  0.25045400  0.49979200  0.75006800  1
  Ni  Ni2  1  0.50002700  0.99994700  0.50003500  1
  Ni  Ni3  1  0.99997800  0.00004900  0.99996200  1
  O  O4  1  0.38634900  0.22622700  0.11287200  1
  O  O5  1  0.88652300  0.22915300  0.61270700  1
  O  O6  1  0.11348600  0.77081900  0.38731700  1
  O  O7  1  0.61363000  0.77382000  0.88709800  1
