# generated using pymatgen
data_Gd2CF2
_symmetry_space_group_name_H-M   'P 1'
_cell_length_a   3.72552896
_cell_length_b   3.72552896
_cell_length_c   6.58230200
_cell_angle_alpha   90.00000000
_cell_angle_beta   90.00000000
_cell_angle_gamma   120.00001706
_symmetry_Int_Tables_number   1
_chemical_formula_structural   Gd2CF2
_chemical_formula_sum   'Gd2 C1 F2'
_cell_volume   79.11963020
_cell_formula_units_Z   1
loop_
 _symmetry_equiv_pos_site_id
 _symmetry_equiv_pos_as_xyz
  1  'x, y, z'
loop_
 _atom_site_type_symbol
 _atom_site_label
 _atom_site_symmetry_multiplicity
 _atom_site_fract_x
 _atom_site_fract_y
 _atom_site_fract_z
 _atom_site_occupancy
  Gd  Gd0  1  0.33333300  0.66666700  0.21068300  1
  Gd  Gd1  1  0.66666700  0.33333300  0.78931700  1
  C  C2  1  0.00000000  0.00000000  0.00000000  1
  F  F3  1  0.33333300  0.66666700  0.61800800  1
  F  F4  1  0.66666700  0.33333300  0.38199200  1
