# generated using pymatgen
data_LuAlB4
_symmetry_space_group_name_H-M   'P 1'
_cell_length_a   3.51211700
_cell_length_b   5.90125800
_cell_length_c   11.43137300
_cell_angle_alpha   90.00000000
_cell_angle_beta   90.00000000
_cell_angle_gamma   90.00000000
_symmetry_Int_Tables_number   1
_chemical_formula_structural   LuAlB4
_chemical_formula_sum   'Lu4 Al4 B16'
_cell_volume   236.92559132
_cell_formula_units_Z   4
loop_
 _symmetry_equiv_pos_site_id
 _symmetry_equiv_pos_as_xyz
  1  'x, y, z'
loop_
 _atom_site_type_symbol
 _atom_site_label
 _atom_site_symmetry_multiplicity
 _atom_site_fract_x
 _atom_site_fract_y
 _atom_site_fract_z
 _atom_site_occupancy
  Lu  Lu0  1  0.00000000  0.37014900  0.65009900  1
  Lu  Lu1  1  0.00000000  0.62985100  0.34990100  1
  Lu  Lu2  1  0.00000000  0.87014900  0.84990100  1
  Lu  Lu3  1  0.00000000  0.12985100  0.15009900  1
  Al  Al4  1  0.00000000  0.36209400  0.91027800  1
  Al  Al5  1  0.00000000  0.63790600  0.08972200  1
  Al  Al6  1  0.00000000  0.86209400  0.58972200  1
  Al  Al7  1  0.00000000  0.13790600  0.41027800  1
  B  B8  1  0.50000000  0.02584200  0.69337100  1
  B  B9  1  0.50000000  0.97415800  0.30662900  1
  B  B10  1  0.50000000  0.52584200  0.80662900  1
  B  B11  1  0.50000000  0.47415800  0.19337100  1
  B  B12  1  0.50000000  0.11424100  0.54742400  1
  B  B13  1  0.50000000  0.88575900  0.45257600  1
  B  B14  1  0.50000000  0.61424100  0.95257600  1
  B  B15  1  0.50000000  0.38575900  0.04742400  1
  B  B16  1  0.50000000  0.29123000  0.31257700  1
  B  B17  1  0.50000000  0.70877000  0.68742300  1
  B  B18  1  0.50000000  0.79123000  0.18742300  1
  B  B19  1  0.50000000  0.20877000  0.81257700  1
  B  B20  1  0.50000000  0.36742900  0.46940500  1
  B  B21  1  0.50000000  0.63257100  0.53059500  1
  B  B22  1  0.50000000  0.86742900  0.03059500  1
  B  B23  1  0.50000000  0.13257100  0.96940500  1
