# generated using pymatgen
data_SnF3
_symmetry_space_group_name_H-M   'P 1'
_cell_length_a   6.22315769
_cell_length_b   6.22315769
_cell_length_c   6.22315769
_cell_angle_alpha   60.00000000
_cell_angle_beta   60.00000000
_cell_angle_gamma   60.00000000
_symmetry_Int_Tables_number   1
_chemical_formula_structural   SnF3
_chemical_formula_sum   'Sn2 F6'
_cell_volume   170.41876696
_cell_formula_units_Z   2
loop_
 _symmetry_equiv_pos_site_id
 _symmetry_equiv_pos_as_xyz
  1  'x, y, z'
loop_
 _atom_site_type_symbol
 _atom_site_label
 _atom_site_symmetry_multiplicity
 _atom_site_fract_x
 _atom_site_fract_y
 _atom_site_fract_z
 _atom_site_occupancy
  Sn  Sn0  1  0.50000000  0.50000000  0.50000000  1
  Sn  Sn1  1  0.00000000  0.00000000  0.00000000  1
  F  F2  1  0.72860700  0.72860700  0.27139300  1
  F  F3  1  0.72860700  0.27139300  0.72860700  1
  F  F4  1  0.27139300  0.27139300  0.72860700  1
  F  F5  1  0.27139300  0.72860700  0.72860700  1
  F  F6  1  0.72860700  0.27139300  0.27139300  1
  F  F7  1  0.27139300  0.72860700  0.27139300  1
