# generated using pymatgen
data_Zr2NiAs2
_symmetry_space_group_name_H-M   'P 1'
_cell_length_a   3.94980708
_cell_length_b   3.94980708
_cell_length_c   13.16452600
_cell_angle_alpha   90.00000000
_cell_angle_beta   90.00000000
_cell_angle_gamma   119.99998451
_symmetry_Int_Tables_number   1
_chemical_formula_structural   Zr2NiAs2
_chemical_formula_sum   'Zr4 Ni2 As4'
_cell_volume   177.86385170
_cell_formula_units_Z   2
loop_
 _symmetry_equiv_pos_site_id
 _symmetry_equiv_pos_as_xyz
  1  'x, y, z'
loop_
 _atom_site_type_symbol
 _atom_site_label
 _atom_site_symmetry_multiplicity
 _atom_site_fract_x
 _atom_site_fract_y
 _atom_site_fract_z
 _atom_site_occupancy
  Zr  Zr0  1  0.66666700  0.33333300  0.38852400  1
  Zr  Zr1  1  0.33333300  0.66666700  0.88852400  1
  Zr  Zr2  1  0.33333300  0.66666700  0.61147600  1
  Zr  Zr3  1  0.66666700  0.33333300  0.11147600  1
  Ni  Ni4  1  0.00000000  0.00000000  0.75000000  1
  Ni  Ni5  1  0.00000000  0.00000000  0.25000000  1
  As  As6  1  0.33333300  0.66666700  0.25000000  1
  As  As7  1  0.00000000  0.00000000  0.00000000  1
  As  As8  1  0.00000000  0.00000000  0.50000000  1
  As  As9  1  0.66666700  0.33333300  0.75000000  1
