# generated using pymatgen
data_Cs2CoH12(SO7)2
_symmetry_space_group_name_H-M   'P 1'
_cell_length_a   12.97873900
_cell_length_b   6.43157300
_cell_length_c   9.36622600
_cell_angle_alpha   73.06266179
_cell_angle_beta   90.00000000
_cell_angle_gamma   90.00000000
_symmetry_Int_Tables_number   1
_chemical_formula_structural   Cs2CoH12(SO7)2
_chemical_formula_sum   'Cs4 Co2 H24 S4 O28'
_cell_volume   747.92074480
_cell_formula_units_Z   2
loop_
 _symmetry_equiv_pos_site_id
 _symmetry_equiv_pos_as_xyz
  1  'x, y, z'
loop_
 _atom_site_type_symbol
 _atom_site_label
 _atom_site_symmetry_multiplicity
 _atom_site_fract_x
 _atom_site_fract_y
 _atom_site_fract_z
 _atom_site_occupancy
  Cs  Cs0  1  0.14358800  0.14857800  0.63061000  1
  Cs  Cs1  1  0.64358800  0.85142200  0.86939000  1
  Cs  Cs2  1  0.85641200  0.85142200  0.36939000  1
  Cs  Cs3  1  0.35641200  0.14857800  0.13061000  1
  Co  Co4  1  0.50000000  0.50000000  0.50000000  1
  Co  Co5  1  0.00000000  0.50000000  0.00000000  1
  H  H6  1  0.40050500  0.18022300  0.71665100  1
  H  H7  1  0.90050500  0.81977700  0.78334900  1
  H  H8  1  0.59949500  0.81977700  0.28334900  1
  H  H9  1  0.09949500  0.18022300  0.21665100  1
  H  H10  1  0.37024500  0.41538200  0.73783500  1
  H  H11  1  0.87024500  0.58461800  0.76216500  1
  H  H12  1  0.62975500  0.58461800  0.26216500  1
  H  H13  1  0.12975500  0.41538200  0.23783500  1
  H  H14  1  0.40254600  0.56938900  0.22736300  1
  H  H15  1  0.90254600  0.43061100  0.27263700  1
  H  H16  1  0.59745400  0.43061100  0.77263700  1
  H  H17  1  0.09745400  0.56938900  0.72736300  1
  H  H18  1  0.31512500  0.51611500  0.35051700  1
  H  H19  1  0.81512500  0.48388500  0.14948300  1
  H  H20  1  0.68487500  0.48388500  0.64948300  1
  H  H21  1  0.18487500  0.51611500  0.85051700  1
  H  H22  1  0.55814500  0.16871800  0.39782400  1
  H  H23  1  0.05814500  0.83128200  0.10217600  1
  H  H24  1  0.44185500  0.83128200  0.60217600  1
  H  H25  1  0.94185500  0.16871800  0.89782400  1
  H  H26  1  0.63836500  0.18727300  0.51966900  1
  H  H27  1  0.13836500  0.81272700  0.98033100  1
  H  H28  1  0.36163500  0.81272700  0.48033100  1
  H  H29  1  0.86163500  0.18727300  0.01966900  1
  S  S30  1  0.35261400  0.75998000  0.89826900  1
  S  S31  1  0.85261400  0.24002000  0.60173100  1
  S  S32  1  0.64738600  0.24002000  0.10173100  1
  S  S33  1  0.14738600  0.75998000  0.39826900  1
  O  O34  1  0.26238100  0.89224200  0.91831500  1
  O  O35  1  0.76238100  0.10775800  0.58168500  1
  O  O36  1  0.73761900  0.10775800  0.08168500  1
  O  O37  1  0.23761900  0.89224200  0.41831500  1
  O  O38  1  0.41687800  0.69599200  0.03544700  1
  O  O39  1  0.91687800  0.30400800  0.46455300  1
  O  O40  1  0.58312200  0.30400800  0.96455300  1
  O  O41  1  0.08312200  0.69599200  0.53544700  1
  O  O42  1  0.41754400  0.89595900  0.77219400  1
  O  O43  1  0.91754400  0.10404100  0.72780600  1
  O  O44  1  0.58245600  0.10404100  0.22780600  1
  O  O45  1  0.08245600  0.89595900  0.27219400  1
  O  O46  1  0.31518600  0.56168800  0.85985400  1
  O  O47  1  0.81518600  0.43831200  0.64014600  1
  O  O48  1  0.68481400  0.43831200  0.14014600  1
  O  O49  1  0.18481400  0.56168800  0.35985400  1
  O  O50  1  0.38997900  0.33769000  0.66488000  1
  O  O51  1  0.88997900  0.66231000  0.83512000  1
  O  O52  1  0.61002100  0.66231000  0.33512000  1
  O  O53  1  0.11002100  0.33769000  0.16488000  1
  O  O54  1  0.38869200  0.48530500  0.33276000  1
  O  O55  1  0.88869200  0.51469500  0.16724000  1
  O  O56  1  0.61130800  0.51469500  0.66724000  1
  O  O57  1  0.11130800  0.48530500  0.83276000  1
  O  O58  1  0.56394300  0.20560900  0.49306100  1
  O  O59  1  0.06394300  0.79439100  0.00693900  1
  O  O60  1  0.43605700  0.79439100  0.50693900  1
  O  O61  1  0.93605700  0.20560900  0.99306100  1
