# generated using pymatgen
data_K2GeAs2
_symmetry_space_group_name_H-M   'P 1'
_cell_length_a   8.33595535
_cell_length_b   8.33595535
_cell_length_c   8.33595535
_cell_angle_alpha   132.81865592
_cell_angle_beta   129.60510717
_cell_angle_gamma   71.50796363
_symmetry_Int_Tables_number   1
_chemical_formula_structural   K2GeAs2
_chemical_formula_sum   'K4 Ge2 As4'
_cell_volume   320.37072780
_cell_formula_units_Z   2
loop_
 _symmetry_equiv_pos_site_id
 _symmetry_equiv_pos_as_xyz
  1  'x, y, z'
loop_
 _atom_site_type_symbol
 _atom_site_label
 _atom_site_symmetry_multiplicity
 _atom_site_fract_x
 _atom_site_fract_y
 _atom_site_fract_z
 _atom_site_occupancy
  K  K0  1  0.30779500  0.64210900  0.66568600  1
  K  K1  1  0.69220500  0.35789100  0.33431400  1
  K  K2  1  0.02357700  0.85789100  0.16568600  1
  K  K3  1  0.97642300  0.14210900  0.83431400  1
  Ge  Ge4  1  0.50000000  0.25000000  0.75000000  1
  Ge  Ge5  1  0.50000000  0.75000000  0.25000000  1
  As  As6  1  0.56684900  0.89615800  0.67069000  1
  As  As7  1  0.43315100  0.10384200  0.32931000  1
  As  As8  1  0.77453200  0.60384200  0.17069000  1
  As  As9  1  0.22546800  0.39615800  0.82931000  1
