# generated using pymatgen
data_K2PtSe2
_symmetry_space_group_name_H-M   'P 1'
_cell_length_a   6.48231099
_cell_length_b   6.48231099
_cell_length_c   6.48231099
_cell_angle_alpha   145.79812884
_cell_angle_beta   109.90186277
_cell_angle_gamma   80.35911218
_symmetry_Int_Tables_number   1
_chemical_formula_structural   K2PtSe2
_chemical_formula_sum   'K2 Pt1 Se2'
_cell_volume   140.57555893
_cell_formula_units_Z   1
loop_
 _symmetry_equiv_pos_site_id
 _symmetry_equiv_pos_as_xyz
  1  'x, y, z'
loop_
 _atom_site_type_symbol
 _atom_site_label
 _atom_site_symmetry_multiplicity
 _atom_site_fract_x
 _atom_site_fract_y
 _atom_site_fract_z
 _atom_site_occupancy
  K  K0  1  0.29940800  0.79940800  0.50000000  1
  K  K1  1  0.70059200  0.20059200  0.50000000  1
  Pt  Pt2  1  0.00000000  0.00000000  0.00000000  1
  Se  Se3  1  0.78031500  0.50000000  0.28031500  1
  Se  Se4  1  0.21968500  0.50000000  0.71968500  1
