# generated using pymatgen
data_Pr10C4Br15
_symmetry_space_group_name_H-M   'P 1'
_cell_length_a   9.27883400
_cell_length_b   10.28464156
_cell_length_c   11.21885794
_cell_angle_alpha   70.12670348
_cell_angle_beta   66.24927409
_cell_angle_gamma   70.74448911
_symmetry_Int_Tables_number   1
_chemical_formula_structural   Pr10C4Br15
_chemical_formula_sum   'Pr10 C4 Br15'
_cell_volume   898.14743813
_cell_formula_units_Z   1
loop_
 _symmetry_equiv_pos_site_id
 _symmetry_equiv_pos_as_xyz
  1  'x, y, z'
loop_
 _atom_site_type_symbol
 _atom_site_label
 _atom_site_symmetry_multiplicity
 _atom_site_fract_x
 _atom_site_fract_y
 _atom_site_fract_z
 _atom_site_occupancy
  Pr  Pr0  1  0.33319200  0.75146700  0.83053400  1
  Pr  Pr1  1  0.66680800  0.24853300  0.16946600  1
  Pr  Pr2  1  0.17011100  0.42962700  0.04613900  1
  Pr  Pr3  1  0.82988900  0.57037300  0.95386100  1
  Pr  Pr4  1  0.07883500  0.18109000  0.88764800  1
  Pr  Pr5  1  0.92116500  0.81891000  0.11235200  1
  Pr  Pr6  1  0.24713500  0.54002100  0.64542500  1
  Pr  Pr7  1  0.75286500  0.45997900  0.35457500  1
  Pr  Pr8  1  0.02776900  0.10463700  0.26553300  1
  Pr  Pr9  1  0.97223100  0.89536300  0.73446700  1
  C  C10  1  0.87999600  0.35977200  0.17080100  1
  C  C11  1  0.12000400  0.64022800  0.82919900  1
  C  C12  1  0.95573800  0.29612900  0.06193600  1
  C  C13  1  0.04426200  0.70387100  0.93806400  1
  Br  Br14  1  0.50000000  0.50000000  0.00000000  1
  Br  Br15  1  0.13518400  0.81363100  0.46711900  1
  Br  Br16  1  0.86481600  0.18636900  0.53288100  1
  Br  Br17  1  0.25420500  0.02818200  0.64555600  1
  Br  Br18  1  0.74579500  0.97181800  0.35444400  1
  Br  Br19  1  0.33559000  0.16773700  0.22175500  1
  Br  Br20  1  0.66441000  0.83226300  0.77824500  1
  Br  Br21  1  0.45348600  0.36690500  0.41390400  1
  Br  Br22  1  0.54651400  0.63309500  0.58609600  1
  Br  Br23  1  0.94690800  0.44460200  0.70315400  1
  Br  Br24  1  0.05309200  0.55539800  0.29684600  1
  Br  Br25  1  0.23110500  0.90852200  0.06099400  1
  Br  Br26  1  0.76889500  0.09147800  0.93900600  1
  Br  Br27  1  0.38713400  0.27135200  0.81810100  1
  Br  Br28  1  0.61286600  0.72864800  0.18189900  1
