# generated using pymatgen
data_NaSc(BH4)4
_symmetry_space_group_name_H-M   'P 1'
_cell_length_a   7.19696227
_cell_length_b   7.19696227
_cell_length_c   8.73494300
_cell_angle_alpha   90.00000000
_cell_angle_beta   90.00000000
_cell_angle_gamma   110.28171667
_symmetry_Int_Tables_number   1
_chemical_formula_structural   NaSc(BH4)4
_chemical_formula_sum   'Na2 Sc2 B8 H32'
_cell_volume   424.38612707
_cell_formula_units_Z   2
loop_
 _symmetry_equiv_pos_site_id
 _symmetry_equiv_pos_as_xyz
  1  'x, y, z'
loop_
 _atom_site_type_symbol
 _atom_site_label
 _atom_site_symmetry_multiplicity
 _atom_site_fract_x
 _atom_site_fract_y
 _atom_site_fract_z
 _atom_site_occupancy
  Na  Na0  1  0.00000000  0.00000000  0.00000000  1
  Na  Na1  1  0.00000000  0.00000000  0.50000000  1
  Sc  Sc2  1  0.35931900  0.64068100  0.25000000  1
  Sc  Sc3  1  0.64068100  0.35931900  0.75000000  1
  B  B4  1  0.24834200  0.75165800  0.46648500  1
  B  B5  1  0.75165800  0.24834200  0.96648500  1
  B  B6  1  0.75165800  0.24834200  0.53351500  1
  B  B7  1  0.24834200  0.75165800  0.03351500  1
  B  B8  1  0.70384800  0.75653400  0.25000000  1
  B  B9  1  0.29615200  0.24346600  0.75000000  1
  B  B10  1  0.75653400  0.70384800  0.75000000  1
  B  B11  1  0.24346600  0.29615200  0.25000000  1
  H  H12  1  0.35037000  0.64963000  0.49822900  1
  H  H13  1  0.64963000  0.35037000  0.99822900  1
  H  H14  1  0.64963000  0.35037000  0.50177100  1
  H  H15  1  0.35037000  0.64963000  0.00177100  1
  H  H16  1  0.35259900  0.88936200  0.38499400  1
  H  H17  1  0.64740100  0.11063800  0.88499400  1
  H  H18  1  0.88936200  0.35259900  0.61500600  1
  H  H19  1  0.11063800  0.64740100  0.11500600  1
  H  H20  1  0.64740100  0.11063800  0.61500600  1
  H  H21  1  0.35259900  0.88936200  0.11500600  1
  H  H22  1  0.11063800  0.64740100  0.38499400  1
  H  H23  1  0.88936200  0.35259900  0.88499400  1
  H  H24  1  0.19259800  0.80740200  0.58184000  1
  H  H25  1  0.80740200  0.19259800  0.08184000  1
  H  H26  1  0.80740200  0.19259800  0.41816000  1
  H  H27  1  0.19259800  0.80740200  0.91816000  1
  H  H28  1  0.63833000  0.65278300  0.36357800  1
  H  H29  1  0.36167000  0.34721700  0.86357800  1
  H  H30  1  0.65278300  0.63833000  0.63642200  1
  H  H31  1  0.34721700  0.36167000  0.13642200  1
  H  H32  1  0.36167000  0.34721700  0.63642200  1
  H  H33  1  0.63833000  0.65278300  0.13642200  1
  H  H34  1  0.34721700  0.36167000  0.36357800  1
  H  H35  1  0.65278300  0.63833000  0.86357800  1
  H  H36  1  0.88297500  0.81889100  0.25000000  1
  H  H37  1  0.11702500  0.18110900  0.75000000  1
  H  H38  1  0.81889100  0.88297500  0.75000000  1
  H  H39  1  0.18110900  0.11702500  0.25000000  1
  H  H40  1  0.63452300  0.89154000  0.25000000  1
  H  H41  1  0.36547700  0.10846000  0.75000000  1
  H  H42  1  0.89154000  0.63452300  0.75000000  1
  H  H43  1  0.10846000  0.36547700  0.25000000  1
