# generated using pymatgen
data_Li8PtO6
_symmetry_space_group_name_H-M   'P 1'
_cell_length_a   5.96489664
_cell_length_b   5.96489664
_cell_length_c   5.96489608
_cell_angle_alpha   54.77214982
_cell_angle_beta   54.77214982
_cell_angle_gamma   54.77214981
_symmetry_Int_Tables_number   1
_chemical_formula_structural   Li8PtO6
_chemical_formula_sum   'Li8 Pt1 O6'
_cell_volume   131.79915551
_cell_formula_units_Z   1
loop_
 _symmetry_equiv_pos_site_id
 _symmetry_equiv_pos_as_xyz
  1  'x, y, z'
loop_
 _atom_site_type_symbol
 _atom_site_label
 _atom_site_symmetry_multiplicity
 _atom_site_fract_x
 _atom_site_fract_y
 _atom_site_fract_z
 _atom_site_occupancy
  Li  Li0  1  0.34272400  0.34272400  0.34272400  1
  Li  Li1  1  0.90132800  0.51425600  0.23290900  1
  Li  Li2  1  0.51425600  0.23290900  0.90132800  1
  Li  Li3  1  0.23290900  0.90132800  0.51425600  1
  Li  Li4  1  0.09867200  0.48574400  0.76709100  1
  Li  Li5  1  0.48574400  0.76709100  0.09867200  1
  Li  Li6  1  0.65727600  0.65727600  0.65727600  1
  Li  Li7  1  0.76709100  0.09867200  0.48574400  1
  Pt  Pt8  1  0.00000000  0.00000000  0.00000000  1
  O  O9  1  0.90694500  0.23643600  0.61607700  1
  O  O10  1  0.38392300  0.09305500  0.76356400  1
  O  O11  1  0.09305500  0.76356400  0.38392300  1
  O  O12  1  0.23643600  0.61607700  0.90694500  1
  O  O13  1  0.61607700  0.90694500  0.23643600  1
  O  O14  1  0.76356400  0.38392300  0.09305500  1
