# generated using pymatgen
data_Th3Au4
_symmetry_space_group_name_H-M   'P 1'
_cell_length_a   8.30299440
_cell_length_b   8.30299440
_cell_length_c   8.30299492
_cell_angle_alpha   113.88416677
_cell_angle_beta   113.88416677
_cell_angle_gamma   113.88415818
_symmetry_Int_Tables_number   1
_chemical_formula_structural   Th3Au4
_chemical_formula_sum   'Th6 Au8'
_cell_volume   350.73320629
_cell_formula_units_Z   2
loop_
 _symmetry_equiv_pos_site_id
 _symmetry_equiv_pos_as_xyz
  1  'x, y, z'
loop_
 _atom_site_type_symbol
 _atom_site_label
 _atom_site_symmetry_multiplicity
 _atom_site_fract_x
 _atom_site_fract_y
 _atom_site_fract_z
 _atom_site_occupancy
  Th  Th0  1  0.02616300  0.40409400  0.28339900  1
  Th  Th1  1  0.40409400  0.28339900  0.02616300  1
  Th  Th2  1  0.71660100  0.97383700  0.59590600  1
  Th  Th3  1  0.28339900  0.02616300  0.40409400  1
  Th  Th4  1  0.59590600  0.71660100  0.97383700  1
  Th  Th5  1  0.97383700  0.59590600  0.71660100  1
  Au  Au6  1  0.00000000  0.00000000  0.00000000  1
  Au  Au7  1  0.50000000  0.50000000  0.50000000  1
  Au  Au8  1  0.43821200  0.93253300  0.77109200  1
  Au  Au9  1  0.93253300  0.77109200  0.43821200  1
  Au  Au10  1  0.22890800  0.56178800  0.06746700  1
  Au  Au11  1  0.77109200  0.43821200  0.93253300  1
  Au  Au12  1  0.06746700  0.22890800  0.56178800  1
  Au  Au13  1  0.56178800  0.06746700  0.22890800  1
