# generated using pymatgen
data_GaPt3
_symmetry_space_group_name_H-M   'P 1'
_cell_length_a   5.60359373
_cell_length_b   5.60359373
_cell_length_c   5.60359373
_cell_angle_alpha   120.67506468
_cell_angle_beta   120.67506468
_cell_angle_gamma   88.83467718
_symmetry_Int_Tables_number   1
_chemical_formula_structural   GaPt3
_chemical_formula_sum   'Ga2 Pt6'
_cell_volume   123.12135149
_cell_formula_units_Z   2
loop_
 _symmetry_equiv_pos_site_id
 _symmetry_equiv_pos_as_xyz
  1  'x, y, z'
loop_
 _atom_site_type_symbol
 _atom_site_label
 _atom_site_symmetry_multiplicity
 _atom_site_fract_x
 _atom_site_fract_y
 _atom_site_fract_z
 _atom_site_occupancy
  Ga  Ga0  1  0.75000000  0.25000000  0.50000000  1
  Ga  Ga1  1  0.25000000  0.75000000  0.50000000  1
  Pt  Pt2  1  0.75000000  0.75000000  0.00000000  1
  Pt  Pt3  1  0.25000000  0.25000000  0.00000000  1
  Pt  Pt4  1  0.20659300  0.70659300  0.91318500  1
  Pt  Pt5  1  0.79340700  0.29340700  0.08681500  1
  Pt  Pt6  1  0.70659300  0.79340700  0.50000000  1
  Pt  Pt7  1  0.29340700  0.20659300  0.50000000  1
