# generated using pymatgen
data_V18Ag7O48
_symmetry_space_group_name_H-M   'P 1'
_cell_length_a   8.36005100
_cell_length_b   10.45803988
_cell_length_c   12.90575252
_cell_angle_alpha   113.79279129
_cell_angle_beta   82.17040003
_cell_angle_gamma   109.87864183
_symmetry_Int_Tables_number   1
_chemical_formula_structural   V18Ag7O48
_chemical_formula_sum   'V18 Ag7 O48'
_cell_volume   970.92985806
_cell_formula_units_Z   1
loop_
 _symmetry_equiv_pos_site_id
 _symmetry_equiv_pos_as_xyz
  1  'x, y, z'
loop_
 _atom_site_type_symbol
 _atom_site_label
 _atom_site_symmetry_multiplicity
 _atom_site_fract_x
 _atom_site_fract_y
 _atom_site_fract_z
 _atom_site_occupancy
  V  V0  1  0.17835800  0.07399100  0.07879100  1
  V  V1  1  0.48596300  0.59316600  0.92080200  1
  V  V2  1  0.15557900  0.25887900  0.91950800  1
  V  V3  1  0.14456600  0.82308500  0.54087600  1
  V  V4  1  0.47814000  0.15570000  0.53987500  1
  V  V5  1  0.81156900  0.49038200  0.54089400  1
  V  V6  1  0.86343200  0.59817300  0.81046200  1
  V  V7  1  0.19644800  0.93204800  0.81032300  1
  V  V8  1  0.52696300  0.26566100  0.80705500  1
  V  V9  1  0.47090300  0.73512200  0.18974700  1
  V  V10  1  0.80843500  0.06904400  0.19304900  1
  V  V11  1  0.13941600  0.40408400  0.19651100  1
  V  V12  1  0.52210400  0.84300200  0.45930300  1
  V  V13  1  0.18896000  0.51050200  0.46014100  1
  V  V14  1  0.85546000  0.17747900  0.46029400  1
  V  V15  1  0.50642400  0.41312800  0.08163800  1
  V  V16  1  0.84668200  0.74154200  0.07906800  1
  V  V17  1  0.82075400  0.92310100  0.91936300  1
  Ag  Ag18  1  0.19101500  0.37060200  0.68109900  1
  Ag  Ag19  1  0.14267600  0.96252700  0.31856300  1
  Ag  Ag20  1  0.47524800  0.29655600  0.31988700  1
  Ag  Ag21  1  0.52420900  0.70298900  0.68084000  1
  Ag  Ag22  1  0.85841000  0.03543700  0.67964300  1
  Ag  Ag23  1  0.81011800  0.63117400  0.31993500  1
  Ag  Ag24  1  0.78792900  0.25224900  0.02105000  1
  O  O25  1  0.30055800  0.50056200  0.55266500  1
  O  O26  1  0.05810400  0.25363500  0.81306500  1
  O  O27  1  0.38964500  0.58736800  0.81424300  1
  O  O28  1  0.27532700  0.07959200  0.18503600  1
  O  O29  1  0.03310800  0.83397800  0.44905600  1
  O  O30  1  0.36610300  0.16626400  0.44823400  1
  O  O31  1  0.03417900  0.07126800  0.92844200  1
  O  O32  1  0.36994100  0.40630200  0.92843800  1
  O  O33  1  0.70101400  0.73844500  0.92804000  1
  O  O34  1  0.74778200  0.58945600  0.67622300  1
  O  O35  1  0.08128400  0.92279800  0.67634900  1
  O  O36  1  0.41404700  0.25609000  0.67594100  1
  O  O37  1  0.98215900  0.79744500  0.82747900  1
  O  O38  1  0.31496900  0.13090600  0.82707100  1
  O  O39  1  0.64886300  0.46431400  0.82684300  1
  O  O40  1  0.35221700  0.83395200  0.27003300  1
  O  O41  1  0.68675900  0.16809400  0.26922500  1
  O  O42  1  0.01516900  0.50223800  0.27177300  1
  O  O43  1  0.36320700  0.96322900  0.53867500  1
  O  O44  1  0.69607500  0.29607900  0.53889400  1
  O  O45  1  0.02949100  0.62981700  0.53901800  1
  O  O46  1  0.39882900  0.69946700  0.04513700  1
  O  O47  1  0.73191500  0.03338200  0.04398500  1
  O  O48  1  0.06670000  0.36557300  0.04194100  1
  O  O49  1  0.26878600  0.96835800  0.95383400  1
  O  O50  1  0.93450700  0.63311500  0.95329400  1
  O  O51  1  0.59641000  0.30124200  0.95348300  1
  O  O52  1  0.63674300  0.03745200  0.46143700  1
  O  O53  1  0.96992900  0.37004200  0.46165600  1
  O  O54  1  0.30392800  0.70424200  0.46165900  1
  O  O55  1  0.31450100  0.83275500  0.73014200  1
  O  O56  1  0.64761600  0.16671600  0.73066700  1
  O  O57  1  0.98110000  0.49888900  0.72971900  1
  O  O58  1  0.01341300  0.19613100  0.17117900  1
  O  O59  1  0.68591000  0.86757500  0.17075700  1
  O  O60  1  0.35909900  0.53888200  0.17062600  1
  O  O61  1  0.58730100  0.74477000  0.32457700  1
  O  O62  1  0.91868300  0.07616100  0.32501200  1
  O  O63  1  0.25522500  0.41082000  0.32680700  1
  O  O64  1  0.29796500  0.26184000  0.07241900  1
  O  O65  1  0.63449100  0.59400300  0.07041900  1
  O  O66  1  0.96543100  0.92657300  0.07060700  1
  O  O67  1  0.63413600  0.83357400  0.55181400  1
  O  O68  1  0.96724500  0.16701700  0.55220700  1
  O  O69  1  0.72416500  0.92038500  0.81385300  1
  O  O70  1  0.60707800  0.41277800  0.18462000  1
  O  O71  1  0.94289200  0.74595500  0.18491100  1
  O  O72  1  0.69904100  0.49982800  0.44884200  1
