# generated using pymatgen
data_Pm2S3
_symmetry_space_group_name_H-M   'P 1'
_cell_length_a   7.52225609
_cell_length_b   7.52225609
_cell_length_c   7.52225624
_cell_angle_alpha   56.65517785
_cell_angle_beta   56.65517785
_cell_angle_gamma   56.65518339
_symmetry_Int_Tables_number   1
_chemical_formula_structural   Pm2S3
_chemical_formula_sum   'Pm4 S6'
_cell_volume   277.72291899
_cell_formula_units_Z   2
loop_
 _symmetry_equiv_pos_site_id
 _symmetry_equiv_pos_as_xyz
  1  'x, y, z'
loop_
 _atom_site_type_symbol
 _atom_site_label
 _atom_site_symmetry_multiplicity
 _atom_site_fract_x
 _atom_site_fract_y
 _atom_site_fract_z
 _atom_site_occupancy
  Pm  Pm0  1  0.85303900  0.85303900  0.85303900  1
  Pm  Pm1  1  0.64696100  0.64696100  0.64696100  1
  Pm  Pm2  1  0.35303900  0.35303900  0.35303900  1
  Pm  Pm3  1  0.14696100  0.14696100  0.14696100  1
  S  S4  1  0.95363800  0.25000000  0.54636200  1
  S  S5  1  0.25000000  0.54636200  0.95363800  1
  S  S6  1  0.54636200  0.95363800  0.25000000  1
  S  S7  1  0.45363800  0.04636200  0.75000000  1
  S  S8  1  0.75000000  0.45363800  0.04636200  1
  S  S9  1  0.04636200  0.75000000  0.45363800  1
