# generated using pymatgen
data_La2PC
_symmetry_space_group_name_H-M   'P 1'
_cell_length_a   8.89336700
_cell_length_b   8.92310342
_cell_length_c   9.05397765
_cell_angle_alpha   90.19049554
_cell_angle_beta   90.11835723
_cell_angle_gamma   90.27046246
_symmetry_Int_Tables_number   1
_chemical_formula_structural   La2PC
_chemical_formula_sum   'La16 P8 C8'
_cell_volume   718.47784278
_cell_formula_units_Z   8
loop_
 _symmetry_equiv_pos_site_id
 _symmetry_equiv_pos_as_xyz
  1  'x, y, z'
loop_
 _atom_site_type_symbol
 _atom_site_label
 _atom_site_symmetry_multiplicity
 _atom_site_fract_x
 _atom_site_fract_y
 _atom_site_fract_z
 _atom_site_occupancy
  La  La0  1  0.82180300  0.80788900  0.20773500  1
  La  La1  1  0.06352700  0.43223600  0.04420800  1
  La  La2  1  0.82271000  0.69540000  0.79204800  1
  La  La3  1  0.93808500  0.04902900  0.56323800  1
  La  La4  1  0.45870500  0.93831400  0.92927400  1
  La  La5  1  0.94412600  0.44623500  0.44883000  1
  La  La6  1  0.31450100  0.20566400  0.32073000  1
  La  La7  1  0.70256000  0.30510200  0.81396200  1
  La  La8  1  0.57134900  0.94076700  0.56086200  1
  La  La9  1  0.29016400  0.32748400  0.69200700  1
  La  La10  1  0.68920900  0.17914800  0.18325800  1
  La  La11  1  0.43267700  0.56247400  0.06889600  1
  La  La12  1  0.18532300  0.69215500  0.68975500  1
  La  La13  1  0.18939900  0.79329800  0.32391900  1
  La  La14  1  0.04190400  0.06169800  0.92963900  1
  La  La15  1  0.54792500  0.57158500  0.44149100  1
  P  P16  1  0.25891700  0.00507100  0.62497300  1
  P  P17  1  0.37687200  0.24539200  0.99960700  1
  P  P18  1  0.50136100  0.62820100  0.75829800  1
  P  P19  1  0.49938000  0.87865700  0.24651900  1
  P  P20  1  0.12839100  0.75454300  0.00285000  1
  P  P21  1  0.75368300  0.50053200  0.12537300  1
  P  P22  1  0.00585500  0.12429300  0.25302900  1
  P  P23  1  0.62557500  0.25936600  0.50006400  1
  C  C24  1  0.74818500  0.99227100  0.80042600  1
  C  C25  1  0.97768500  0.44956700  0.74992200  1
  C  C26  1  0.94768500  0.75179100  0.48414100  1
  C  C27  1  0.99776200  0.29744300  0.75209000  1
  C  C28  1  0.74569400  0.02502500  0.94778000  1
  C  C29  1  0.79663300  0.72515600  0.49503100  1
  C  C30  1  0.24701600  0.47771300  0.44937200  1
  C  C31  1  0.25034000  0.50150100  0.30068100  1
