# generated using pymatgen
data_YbGaPt
_symmetry_space_group_name_H-M   'P 1'
_cell_length_a   4.32133700
_cell_length_b   7.08072300
_cell_length_c   7.70945300
_cell_angle_alpha   90.00000000
_cell_angle_beta   90.00000000
_cell_angle_gamma   90.00000000
_symmetry_Int_Tables_number   1
_chemical_formula_structural   YbGaPt
_chemical_formula_sum   'Yb4 Ga4 Pt4'
_cell_volume   235.89530990
_cell_formula_units_Z   4
loop_
 _symmetry_equiv_pos_site_id
 _symmetry_equiv_pos_as_xyz
  1  'x, y, z'
loop_
 _atom_site_type_symbol
 _atom_site_label
 _atom_site_symmetry_multiplicity
 _atom_site_fract_x
 _atom_site_fract_y
 _atom_site_fract_z
 _atom_site_occupancy
  Yb  Yb0  1  0.25000000  0.98318600  0.31179200  1
  Yb  Yb1  1  0.25000000  0.48318600  0.18820800  1
  Yb  Yb2  1  0.75000000  0.01681400  0.68820800  1
  Yb  Yb3  1  0.75000000  0.51681400  0.81179200  1
  Ga  Ga4  1  0.25000000  0.33802600  0.57534500  1
  Ga  Ga5  1  0.25000000  0.83802600  0.92465500  1
  Ga  Ga6  1  0.75000000  0.66197400  0.42465500  1
  Ga  Ga7  1  0.75000000  0.16197400  0.07534500  1
  Pt  Pt8  1  0.25000000  0.21239600  0.89424300  1
  Pt  Pt9  1  0.25000000  0.71239600  0.60575700  1
  Pt  Pt10  1  0.75000000  0.78760400  0.10575700  1
  Pt  Pt11  1  0.75000000  0.28760400  0.39424300  1
