# generated using pymatgen
data_Rb2MnS2
_symmetry_space_group_name_H-M   'P 1'
_cell_length_a   8.20710626
_cell_length_b   8.20710626
_cell_length_c   8.20710626
_cell_angle_alpha   133.91683299
_cell_angle_beta   128.32171446
_cell_angle_gamma   71.71825772
_symmetry_Int_Tables_number   1
_chemical_formula_structural   Rb2MnS2
_chemical_formula_sum   'Rb4 Mn2 S4'
_cell_volume   305.71345160
_cell_formula_units_Z   2
loop_
 _symmetry_equiv_pos_site_id
 _symmetry_equiv_pos_as_xyz
  1  'x, y, z'
loop_
 _atom_site_type_symbol
 _atom_site_label
 _atom_site_symmetry_multiplicity
 _atom_site_fract_x
 _atom_site_fract_y
 _atom_site_fract_z
 _atom_site_occupancy
  Rb  Rb0  1  0.80899300  0.64765000  0.16134300  1
  Rb  Rb1  1  0.19100700  0.35235000  0.83865700  1
  Rb  Rb2  1  0.51369200  0.85235000  0.66134300  1
  Rb  Rb3  1  0.48630800  0.14765000  0.33865700  1
  Mn  Mn4  1  0.00000000  0.25000000  0.25000000  1
  Mn  Mn5  1  0.00000000  0.75000000  0.75000000  1
  S  S6  1  0.71886400  0.40149100  0.31737300  1
  S  S7  1  0.28113600  0.59850900  0.68262700  1
  S  S8  1  0.91588200  0.09850900  0.81737300  1
  S  S9  1  0.08411800  0.90149100  0.18262700  1
