# generated using pymatgen
data_PmAl3
_symmetry_space_group_name_H-M   'P 1'
_cell_length_a   6.44612748
_cell_length_b   6.44612748
_cell_length_c   4.63107300
_cell_angle_alpha   90.00000000
_cell_angle_beta   90.00000000
_cell_angle_gamma   119.99999463
_symmetry_Int_Tables_number   1
_chemical_formula_structural   PmAl3
_chemical_formula_sum   'Pm2 Al6'
_cell_volume   166.65182024
_cell_formula_units_Z   2
loop_
 _symmetry_equiv_pos_site_id
 _symmetry_equiv_pos_as_xyz
  1  'x, y, z'
loop_
 _atom_site_type_symbol
 _atom_site_label
 _atom_site_symmetry_multiplicity
 _atom_site_fract_x
 _atom_site_fract_y
 _atom_site_fract_z
 _atom_site_occupancy
  Pm  Pm0  1  0.33333300  0.66666700  0.75000000  1
  Pm  Pm1  1  0.66666700  0.33333300  0.25000000  1
  Al  Al2  1  0.14276800  0.28553500  0.25000000  1
  Al  Al3  1  0.71446500  0.85723200  0.25000000  1
  Al  Al4  1  0.14276800  0.85723200  0.25000000  1
  Al  Al5  1  0.85723200  0.71446500  0.75000000  1
  Al  Al6  1  0.28553500  0.14276800  0.75000000  1
  Al  Al7  1  0.85723200  0.14276800  0.75000000  1
