# generated using pymatgen
data_K2BaCdSb2
_symmetry_space_group_name_H-M   'P 1'
_cell_length_a   5.10501600
_cell_length_b   8.64847700
_cell_length_c   10.00531800
_cell_angle_alpha   90.00000000
_cell_angle_beta   90.00000000
_cell_angle_gamma   90.00000000
_symmetry_Int_Tables_number   1
_chemical_formula_structural   K2BaCdSb2
_chemical_formula_sum   'K4 Ba2 Cd2 Sb4'
_cell_volume   441.74092757
_cell_formula_units_Z   2
loop_
 _symmetry_equiv_pos_site_id
 _symmetry_equiv_pos_as_xyz
  1  'x, y, z'
loop_
 _atom_site_type_symbol
 _atom_site_label
 _atom_site_symmetry_multiplicity
 _atom_site_fract_x
 _atom_site_fract_y
 _atom_site_fract_z
 _atom_site_occupancy
  K  K0  1  0.50000000  0.02021200  0.42229700  1
  K  K1  1  0.00000000  0.34491800  0.33939000  1
  K  K2  1  0.50000000  0.52021200  0.57770300  1
  K  K3  1  0.00000000  0.84491800  0.66061000  1
  Ba  Ba4  1  0.00000000  0.99900800  0.04985700  1
  Ba  Ba5  1  0.00000000  0.49900800  0.95014300  1
  Cd  Cd6  1  0.50000000  0.15400100  0.82295000  1
  Cd  Cd7  1  0.50000000  0.65400100  0.17705000  1
  Sb  Sb8  1  0.00000000  0.23907100  0.68070000  1
  Sb  Sb9  1  0.50000000  0.28839100  0.11331000  1
  Sb  Sb10  1  0.00000000  0.73907100  0.31930000  1
  Sb  Sb11  1  0.50000000  0.78839100  0.88669000  1
