# generated using pymatgen
data_K2Sn2S5
_symmetry_space_group_name_H-M   'P 1'
_cell_length_a   6.90994473
_cell_length_b   6.90994473
_cell_length_c   11.71380242
_cell_angle_alpha   75.31963090
_cell_angle_beta   75.31963090
_cell_angle_gamma   70.79874094
_symmetry_Int_Tables_number   1
_chemical_formula_structural   K2Sn2S5
_chemical_formula_sum   'K4 Sn4 S10'
_cell_volume   502.01246039
_cell_formula_units_Z   2
loop_
 _symmetry_equiv_pos_site_id
 _symmetry_equiv_pos_as_xyz
  1  'x, y, z'
loop_
 _atom_site_type_symbol
 _atom_site_label
 _atom_site_symmetry_multiplicity
 _atom_site_fract_x
 _atom_site_fract_y
 _atom_site_fract_z
 _atom_site_occupancy
  K  K0  1  0.88613500  0.55118600  0.18369900  1
  K  K1  1  0.44881400  0.11386500  0.31630100  1
  K  K2  1  0.11386500  0.44881400  0.81630100  1
  K  K3  1  0.55118600  0.88613500  0.68369900  1
  Sn  Sn4  1  0.24926200  0.93953100  0.05722500  1
  Sn  Sn5  1  0.06046900  0.75073800  0.44277500  1
  Sn  Sn6  1  0.75073800  0.06046900  0.94277500  1
  Sn  Sn7  1  0.93953100  0.24926200  0.55722500  1
  S  S8  1  0.35747300  0.25019100  0.03660700  1
  S  S9  1  0.74980900  0.64252700  0.46339300  1
  S  S10  1  0.64252700  0.74980900  0.96339300  1
  S  S11  1  0.25019100  0.35747300  0.53660700  1
  S  S12  1  0.31254700  0.68745300  0.25000000  1
  S  S13  1  0.68745300  0.31254700  0.75000000  1
  S  S14  1  0.14791100  0.88271700  0.88358700  1
  S  S15  1  0.11728300  0.85208900  0.61641300  1
  S  S16  1  0.88271700  0.14791100  0.38358700  1
  S  S17  1  0.85208900  0.11728300  0.11641300  1
