# generated using pymatgen
data_V4GeS8
_symmetry_space_group_name_H-M   'P 1'
_cell_length_a   6.85755692
_cell_length_b   6.85755692
_cell_length_c   6.85755692
_cell_angle_alpha   60.00000000
_cell_angle_beta   60.00000000
_cell_angle_gamma   60.00000000
_symmetry_Int_Tables_number   1
_chemical_formula_structural   V4GeS8
_chemical_formula_sum   'V4 Ge1 S8'
_cell_volume   228.03067104
_cell_formula_units_Z   1
loop_
 _symmetry_equiv_pos_site_id
 _symmetry_equiv_pos_as_xyz
  1  'x, y, z'
loop_
 _atom_site_type_symbol
 _atom_site_label
 _atom_site_symmetry_multiplicity
 _atom_site_fract_x
 _atom_site_fract_y
 _atom_site_fract_z
 _atom_site_occupancy
  V  V0  1  0.43777500  0.85407500  0.85407500  1
  V  V1  1  0.85407500  0.43777500  0.85407500  1
  V  V2  1  0.85407500  0.85407500  0.85407500  1
  V  V3  1  0.85407500  0.85407500  0.43777500  1
  Ge  Ge4  1  0.25000000  0.25000000  0.25000000  1
  S  S5  1  0.62041600  0.62041600  0.13875100  1
  S  S6  1  0.62041600  0.62041600  0.62041600  1
  S  S7  1  0.11334300  0.11334300  0.65997100  1
  S  S8  1  0.11334300  0.11334300  0.11334300  1
  S  S9  1  0.62041600  0.13875100  0.62041600  1
  S  S10  1  0.13875100  0.62041600  0.62041600  1
  S  S11  1  0.11334300  0.65997100  0.11334300  1
  S  S12  1  0.65997100  0.11334300  0.11334300  1
