# generated using pymatgen
data_Sr(BS2)2
_symmetry_space_group_name_H-M   'P 1'
_cell_length_a   14.26157400
_cell_length_b   6.14649000
_cell_length_c   6.53900238
_cell_angle_alpha   70.47557791
_cell_angle_beta   90.00000000
_cell_angle_gamma   90.00000000
_symmetry_Int_Tables_number   1
_chemical_formula_structural   Sr(BS2)2
_chemical_formula_sum   'Sr4 B8 S16'
_cell_volume   540.24043787
_cell_formula_units_Z   4
loop_
 _symmetry_equiv_pos_site_id
 _symmetry_equiv_pos_as_xyz
  1  'x, y, z'
loop_
 _atom_site_type_symbol
 _atom_site_label
 _atom_site_symmetry_multiplicity
 _atom_site_fract_x
 _atom_site_fract_y
 _atom_site_fract_z
 _atom_site_occupancy
  Sr  Sr0  1  0.60369800  0.30354300  0.30968600  1
  Sr  Sr1  1  0.10369800  0.19645700  0.69031400  1
  Sr  Sr2  1  0.39630200  0.69645700  0.69031400  1
  Sr  Sr3  1  0.89630200  0.80354300  0.30968600  1
  B  B4  1  0.58382000  0.93113700  0.96551500  1
  B  B5  1  0.08382000  0.56886300  0.03448500  1
  B  B6  1  0.41618000  0.06886300  0.03448500  1
  B  B7  1  0.91618000  0.43113700  0.96551500  1
  B  B8  1  0.27218800  0.32116000  0.22837900  1
  B  B9  1  0.77218800  0.17884000  0.77162100  1
  B  B10  1  0.72781200  0.67884000  0.77162100  1
  B  B11  1  0.22781200  0.82116000  0.22837900  1
  S  S12  1  0.50787900  0.86102100  0.23068200  1
  S  S13  1  0.26067500  0.50887300  0.41264000  1
  S  S14  1  0.23932500  0.00887300  0.41264000  1
  S  S15  1  0.76067500  0.99112700  0.58736000  1
  S  S16  1  0.89984500  0.16864800  0.87255500  1
  S  S17  1  0.39984500  0.33135200  0.12744500  1
  S  S18  1  0.10015500  0.83135200  0.12744500  1
  S  S19  1  0.60015500  0.66864800  0.87255500  1
  S  S20  1  0.80435500  0.56167300  0.02645000  1
  S  S21  1  0.30435500  0.93832700  0.97355000  1
  S  S22  1  0.19564500  0.43832700  0.97355000  1
  S  S23  1  0.69564500  0.06167300  0.02645000  1
  S  S24  1  0.49212100  0.13897900  0.76931800  1
  S  S25  1  0.99212100  0.36102100  0.23068200  1
  S  S26  1  0.73932500  0.49112700  0.58736000  1
  S  S27  1  0.00787900  0.63897900  0.76931800  1
