# generated using pymatgen
data_Nb3Fe(PO4)6
_symmetry_space_group_name_H-M   'P 1'
_cell_length_a   8.98225683
_cell_length_b   8.98225683
_cell_length_c   8.98225713
_cell_angle_alpha   58.55029566
_cell_angle_beta   58.55029566
_cell_angle_gamma   58.55029847
_symmetry_Int_Tables_number   1
_chemical_formula_structural   Nb3Fe(PO4)6
_chemical_formula_sum   'Nb3 Fe1 P6 O24'
_cell_volume   495.44882512
_cell_formula_units_Z   1
loop_
 _symmetry_equiv_pos_site_id
 _symmetry_equiv_pos_as_xyz
  1  'x, y, z'
loop_
 _atom_site_type_symbol
 _atom_site_label
 _atom_site_symmetry_multiplicity
 _atom_site_fract_x
 _atom_site_fract_y
 _atom_site_fract_z
 _atom_site_occupancy
  Nb  Nb0  1  0.85936400  0.85936400  0.85936400  1
  Nb  Nb1  1  0.64144500  0.64144500  0.64144500  1
  Nb  Nb2  1  0.36014400  0.36014400  0.36014400  1
  Fe  Fe3  1  0.14190700  0.14190700  0.14190700  1
  P  P4  1  0.52918300  0.96739400  0.24936800  1
  P  P5  1  0.24936800  0.52918300  0.96739400  1
  P  P6  1  0.96739400  0.24936800  0.52918300  1
  P  P7  1  0.03483200  0.75712300  0.45983000  1
  P  P8  1  0.75712300  0.45983000  0.03483200  1
  P  P9  1  0.45983000  0.03483200  0.75712300  1
  O  O10  1  0.49924900  0.86699000  0.71658600  1
  O  O11  1  0.86699000  0.71658600  0.49924900  1
  O  O12  1  0.71152900  0.93728800  0.08011600  1
  O  O13  1  0.71658600  0.49924900  0.86699000  1
  O  O14  1  0.56569700  0.78938800  0.41973600  1
  O  O15  1  0.36557100  0.99175600  0.22158100  1
  O  O16  1  0.08011600  0.71152900  0.93728800  1
  O  O17  1  0.41973600  0.56569700  0.78938800  1
  O  O18  1  0.78938800  0.41973600  0.56569700  1
  O  O19  1  0.00337500  0.77961300  0.63541800  1
  O  O20  1  0.06094400  0.92179300  0.28581500  1
  O  O21  1  0.77961300  0.63541800  0.00337500  1
  O  O22  1  0.22158100  0.36557100  0.99175600  1
  O  O23  1  0.93728800  0.08011600  0.71152900  1
  O  O24  1  0.99175600  0.22158100  0.36557100  1
  O  O25  1  0.21001100  0.57891200  0.43906500  1
  O  O26  1  0.57891200  0.43906500  0.21001100  1
  O  O27  1  0.92179300  0.28581500  0.06094400  1
  O  O28  1  0.63541800  0.00337500  0.77961300  1
  O  O29  1  0.43906500  0.21001100  0.57891200  1
  O  O30  1  0.28093800  0.50363000  0.13440600  1
  O  O31  1  0.28581500  0.06094400  0.92179300  1
  O  O32  1  0.13440600  0.28093800  0.50363000  1
  O  O33  1  0.50363000  0.13440600  0.28093800  1
