# generated using pymatgen
data_Nb4Ni2C
_symmetry_space_group_name_H-M   'P 1'
_cell_length_a   8.29319440
_cell_length_b   8.29319440
_cell_length_c   8.29319440
_cell_angle_alpha   60.00000000
_cell_angle_beta   60.00000000
_cell_angle_gamma   60.00000000
_symmetry_Int_Tables_number   1
_chemical_formula_structural   Nb4Ni2C
_chemical_formula_sum   'Nb16 Ni8 C4'
_cell_volume   403.32072566
_cell_formula_units_Z   4
loop_
 _symmetry_equiv_pos_site_id
 _symmetry_equiv_pos_as_xyz
  1  'x, y, z'
loop_
 _atom_site_type_symbol
 _atom_site_label
 _atom_site_symmetry_multiplicity
 _atom_site_fract_x
 _atom_site_fract_y
 _atom_site_fract_z
 _atom_site_occupancy
  Nb  Nb0  1  0.43402800  0.06597200  0.06597200  1
  Nb  Nb1  1  0.06597200  0.43402800  0.43402800  1
  Nb  Nb2  1  0.06597200  0.43402800  0.06597200  1
  Nb  Nb3  1  0.06597200  0.06597200  0.43402800  1
  Nb  Nb4  1  0.43402800  0.06597200  0.43402800  1
  Nb  Nb5  1  0.43402800  0.43402800  0.06597200  1
  Nb  Nb6  1  0.18402800  0.81597200  0.18402800  1
  Nb  Nb7  1  0.81597200  0.18402800  0.81597200  1
  Nb  Nb8  1  0.81597200  0.18402800  0.18402800  1
  Nb  Nb9  1  0.18402800  0.18402800  0.81597200  1
  Nb  Nb10  1  0.18402800  0.81597200  0.81597200  1
  Nb  Nb11  1  0.81597200  0.81597200  0.18402800  1
  Nb  Nb12  1  0.62500000  0.62500000  0.62500000  1
  Nb  Nb13  1  0.62500000  0.62500000  0.12500000  1
  Nb  Nb14  1  0.12500000  0.62500000  0.62500000  1
  Nb  Nb15  1  0.62500000  0.12500000  0.62500000  1
  Ni  Ni16  1  0.82988100  0.82988100  0.82988100  1
  Ni  Ni17  1  0.82988100  0.82988100  0.51035600  1
  Ni  Ni18  1  0.51035600  0.82988100  0.82988100  1
  Ni  Ni19  1  0.82988100  0.51035600  0.82988100  1
  Ni  Ni20  1  0.42011900  0.42011900  0.42011900  1
  Ni  Ni21  1  0.42011900  0.42011900  0.73964400  1
  Ni  Ni22  1  0.42011900  0.73964400  0.42011900  1
  Ni  Ni23  1  0.73964400  0.42011900  0.42011900  1
  C  C24  1  0.12500000  0.62500000  0.12500000  1
  C  C25  1  0.62500000  0.12500000  0.12500000  1
  C  C26  1  0.12500000  0.12500000  0.62500000  1
  C  C27  1  0.12500000  0.12500000  0.12500000  1
