# generated using pymatgen
data_Na3AlAs2
_symmetry_space_group_name_H-M   'P 1'
_cell_length_a   8.29844613
_cell_length_b   8.29844613
_cell_length_c   8.29844613
_cell_angle_alpha   135.85701292
_cell_angle_beta   130.06322077
_cell_angle_gamma   68.82384956
_symmetry_Int_Tables_number   1
_chemical_formula_structural   Na3AlAs2
_chemical_formula_sum   'Na6 Al2 As4'
_cell_volume   299.12345446
_cell_formula_units_Z   2
loop_
 _symmetry_equiv_pos_site_id
 _symmetry_equiv_pos_as_xyz
  1  'x, y, z'
loop_
 _atom_site_type_symbol
 _atom_site_label
 _atom_site_symmetry_multiplicity
 _atom_site_fract_x
 _atom_site_fract_y
 _atom_site_fract_z
 _atom_site_occupancy
  Na  Na0  1  0.62510400  0.31052500  0.31458000  1
  Na  Na1  1  0.37489600  0.68947500  0.68542000  1
  Na  Na2  1  0.00405500  0.18947500  0.81458000  1
  Na  Na3  1  0.99594500  0.81052500  0.18542000  1
  Na  Na4  1  0.50000000  0.25000000  0.75000000  1
  Na  Na5  1  0.50000000  0.75000000  0.25000000  1
  Al  Al6  1  0.00000000  0.75000000  0.75000000  1
  Al  Al7  1  0.00000000  0.25000000  0.25000000  1
  As  As8  1  0.69508100  0.89658500  0.79849600  1
  As  As9  1  0.30491900  0.10341500  0.20150400  1
  As  As10  1  0.90191100  0.60341500  0.29849600  1
  As  As11  1  0.09808900  0.39658500  0.70150400  1
