# generated using pymatgen
data_Ca3Ni7B2
_symmetry_space_group_name_H-M   'P 1'
_cell_length_a   7.68617564
_cell_length_b   7.68617564
_cell_length_c   7.68617520
_cell_angle_alpha   39.02103410
_cell_angle_beta   39.02103410
_cell_angle_gamma   39.02103357
_symmetry_Int_Tables_number   1
_chemical_formula_structural   Ca3Ni7B2
_chemical_formula_sum   'Ca3 Ni7 B2'
_cell_volume   161.88159178
_cell_formula_units_Z   1
loop_
 _symmetry_equiv_pos_site_id
 _symmetry_equiv_pos_as_xyz
  1  'x, y, z'
loop_
 _atom_site_type_symbol
 _atom_site_label
 _atom_site_symmetry_multiplicity
 _atom_site_fract_x
 _atom_site_fract_y
 _atom_site_fract_z
 _atom_site_occupancy
  Ca  Ca0  1  0.64484600  0.64484600  0.64484600  1
  Ca  Ca1  1  0.35515400  0.35515400  0.35515400  1
  Ca  Ca2  1  0.50000000  0.50000000  0.50000000  1
  Ni  Ni3  1  0.57195900  0.06114400  0.06114400  1
  Ni  Ni4  1  0.06114400  0.06114400  0.57195900  1
  Ni  Ni5  1  0.06114400  0.57195900  0.06114400  1
  Ni  Ni6  1  0.93885600  0.42804100  0.93885600  1
  Ni  Ni7  1  0.93885600  0.93885600  0.42804100  1
  Ni  Ni8  1  0.42804100  0.93885600  0.93885600  1
  Ni  Ni9  1  0.00000000  0.00000000  0.00000000  1
  B  B10  1  0.83093700  0.83093700  0.83093700  1
  B  B11  1  0.16906300  0.16906300  0.16906300  1
