# generated using pymatgen
data_PmB3
_symmetry_space_group_name_H-M   'P 1'
_cell_length_a   5.58106382
_cell_length_b   5.58106382
_cell_length_c   3.44150000
_cell_angle_alpha   90.00000000
_cell_angle_beta   90.00000000
_cell_angle_gamma   119.99999790
_symmetry_Int_Tables_number   1
_chemical_formula_structural   PmB3
_chemical_formula_sum   'Pm2 B6'
_cell_volume   92.83513916
_cell_formula_units_Z   2
loop_
 _symmetry_equiv_pos_site_id
 _symmetry_equiv_pos_as_xyz
  1  'x, y, z'
loop_
 _atom_site_type_symbol
 _atom_site_label
 _atom_site_symmetry_multiplicity
 _atom_site_fract_x
 _atom_site_fract_y
 _atom_site_fract_z
 _atom_site_occupancy
  Pm  Pm0  1  0.66666700  0.33333300  0.25000000  1
  Pm  Pm1  1  0.33333300  0.66666700  0.75000000  1
  B  B2  1  0.89290700  0.10709300  0.75000000  1
  B  B3  1  0.21418600  0.10709300  0.75000000  1
  B  B4  1  0.89290700  0.78581400  0.75000000  1
  B  B5  1  0.10709300  0.89290700  0.25000000  1
  B  B6  1  0.78581400  0.89290700  0.25000000  1
  B  B7  1  0.10709300  0.21418600  0.25000000  1
