# generated using pymatgen
data_BaAsPt
_symmetry_space_group_name_H-M   'P 1'
_cell_length_a   6.82925500
_cell_length_b   6.82925500
_cell_length_c   6.82925500
_cell_angle_alpha   90.00000000
_cell_angle_beta   90.00000000
_cell_angle_gamma   90.00000000
_symmetry_Int_Tables_number   1
_chemical_formula_structural   BaAsPt
_chemical_formula_sum   'Ba4 As4 Pt4'
_cell_volume   318.50773808
_cell_formula_units_Z   4
loop_
 _symmetry_equiv_pos_site_id
 _symmetry_equiv_pos_as_xyz
  1  'x, y, z'
loop_
 _atom_site_type_symbol
 _atom_site_label
 _atom_site_symmetry_multiplicity
 _atom_site_fract_x
 _atom_site_fract_y
 _atom_site_fract_z
 _atom_site_occupancy
  Ba  Ba0  1  0.61012100  0.38987900  0.88987900  1
  Ba  Ba1  1  0.38987900  0.88987900  0.61012100  1
  Ba  Ba2  1  0.11012100  0.11012100  0.11012100  1
  Ba  Ba3  1  0.88987900  0.61012100  0.38987900  1
  As  As4  1  0.17119400  0.32880600  0.67119400  1
  As  As5  1  0.67119400  0.17119400  0.32880600  1
  As  As6  1  0.32880600  0.67119400  0.17119400  1
  As  As7  1  0.82880600  0.82880600  0.82880600  1
  Pt  Pt8  1  0.59557400  0.90442600  0.09557400  1
  Pt  Pt9  1  0.09557400  0.59557400  0.90442600  1
  Pt  Pt10  1  0.40442600  0.40442600  0.40442600  1
  Pt  Pt11  1  0.90442600  0.09557400  0.59557400  1
