# generated using pymatgen
data_NbNiTe5
_symmetry_space_group_name_H-M   'P 1'
_cell_length_a   7.12449842
_cell_length_b   7.12449842
_cell_length_c   15.27028900
_cell_angle_alpha   90.00000000
_cell_angle_beta   90.00000000
_cell_angle_gamma   149.83241723
_symmetry_Int_Tables_number   1
_chemical_formula_structural   NbNiTe5
_chemical_formula_sum   'Nb2 Ni2 Te10'
_cell_volume   389.50998141
_cell_formula_units_Z   2
loop_
 _symmetry_equiv_pos_site_id
 _symmetry_equiv_pos_as_xyz
  1  'x, y, z'
loop_
 _atom_site_type_symbol
 _atom_site_label
 _atom_site_symmetry_multiplicity
 _atom_site_fract_x
 _atom_site_fract_y
 _atom_site_fract_z
 _atom_site_occupancy
  Nb  Nb0  1  0.49058900  0.50941100  0.25000000  1
  Nb  Nb1  1  0.50941100  0.49058900  0.75000000  1
  Ni  Ni2  1  0.00000000  0.00000000  0.50000000  1
  Ni  Ni3  1  0.00000000  0.00000000  0.00000000  1
  Te  Te4  1  0.39987700  0.60012300  0.42385100  1
  Te  Te5  1  0.60012300  0.39987700  0.57614900  1
  Te  Te6  1  0.60012300  0.39987700  0.92385100  1
  Te  Te7  1  0.39987700  0.60012300  0.07614900  1
  Te  Te8  1  0.83276900  0.16723100  0.25000000  1
  Te  Te9  1  0.16723100  0.83276900  0.75000000  1
  Te  Te10  1  0.90077000  0.09923000  0.64514700  1
  Te  Te11  1  0.09923000  0.90077000  0.35485300  1
  Te  Te12  1  0.09923000  0.90077000  0.14514700  1
  Te  Te13  1  0.90077000  0.09923000  0.85485300  1
