# generated using pymatgen
data_Ba2GdB2ClO6
_symmetry_space_group_name_H-M   'P 1'
_cell_length_a   5.38648200
_cell_length_b   6.53377600
_cell_length_c   11.52362618
_cell_angle_alpha   84.18165843
_cell_angle_beta   90.00000000
_cell_angle_gamma   90.00000000
_symmetry_Int_Tables_number   1
_chemical_formula_structural   Ba2GdB2ClO6
_chemical_formula_sum   'Ba4 Gd2 B4 Cl2 O12'
_cell_volume   403.47393244
_cell_formula_units_Z   2
loop_
 _symmetry_equiv_pos_site_id
 _symmetry_equiv_pos_as_xyz
  1  'x, y, z'
loop_
 _atom_site_type_symbol
 _atom_site_label
 _atom_site_symmetry_multiplicity
 _atom_site_fract_x
 _atom_site_fract_y
 _atom_site_fract_z
 _atom_site_occupancy
  Ba  Ba0  1  0.75000000  0.40196100  0.70838600  1
  Ba  Ba1  1  0.25000000  0.59803900  0.29161400  1
  Ba  Ba2  1  0.75000000  0.16165400  0.07317200  1
  Ba  Ba3  1  0.25000000  0.83834600  0.92682800  1
  Gd  Gd4  1  0.75000000  0.15800800  0.41085000  1
  Gd  Gd5  1  0.25000000  0.84199200  0.58915000  1
  B  B6  1  0.25000000  0.12825200  0.22226200  1
  B  B7  1  0.75000000  0.87174800  0.77773800  1
  B  B8  1  0.75000000  0.71347000  0.42447200  1
  B  B9  1  0.25000000  0.28653000  0.57552800  1
  Cl  Cl10  1  0.75000000  0.65180300  0.08312000  1
  Cl  Cl11  1  0.25000000  0.34819700  0.91688000  1
  O  O12  1  0.47068200  0.21459400  0.25822100  1
  O  O13  1  0.97068200  0.78540600  0.74177900  1
  O  O14  1  0.52931800  0.78540600  0.74177900  1
  O  O15  1  0.02931800  0.21459400  0.25822100  1
  O  O16  1  0.53059400  0.82573100  0.43257200  1
  O  O17  1  0.03059400  0.17426900  0.56742800  1
  O  O18  1  0.46940600  0.17426900  0.56742800  1
  O  O19  1  0.96940600  0.82573100  0.43257200  1
  O  O20  1  0.75000000  0.51292900  0.40235700  1
  O  O21  1  0.25000000  0.48707100  0.59764300  1
  O  O22  1  0.25000000  0.97692300  0.14662600  1
  O  O23  1  0.75000000  0.02307700  0.85337400  1
