# generated using pymatgen
data_Sm2MgGe2
_symmetry_space_group_name_H-M   'P 1'
_cell_length_a   7.38501800
_cell_length_b   7.38501800
_cell_length_c   4.36093600
_cell_angle_alpha   90.00000000
_cell_angle_beta   90.00000000
_cell_angle_gamma   90.00000000
_symmetry_Int_Tables_number   1
_chemical_formula_structural   Sm2MgGe2
_chemical_formula_sum   'Sm4 Mg2 Ge4'
_cell_volume   237.83886818
_cell_formula_units_Z   2
loop_
 _symmetry_equiv_pos_site_id
 _symmetry_equiv_pos_as_xyz
  1  'x, y, z'
loop_
 _atom_site_type_symbol
 _atom_site_label
 _atom_site_symmetry_multiplicity
 _atom_site_fract_x
 _atom_site_fract_y
 _atom_site_fract_z
 _atom_site_occupancy
  Sm  Sm0  1  0.67809900  0.17809900  0.50000000  1
  Sm  Sm1  1  0.32190100  0.82190100  0.50000000  1
  Sm  Sm2  1  0.17809900  0.32190100  0.50000000  1
  Sm  Sm3  1  0.82190100  0.67809900  0.50000000  1
  Mg  Mg4  1  0.50000000  0.50000000  0.00000000  1
  Mg  Mg5  1  0.00000000  0.00000000  0.00000000  1
  Ge  Ge6  1  0.87795600  0.37795600  0.00000000  1
  Ge  Ge7  1  0.12204400  0.62204400  0.00000000  1
  Ge  Ge8  1  0.37795600  0.12204400  0.00000000  1
  Ge  Ge9  1  0.62204400  0.87795600  0.00000000  1
