# generated using pymatgen
data_NdCoC2
_symmetry_space_group_name_H-M   'P 1'
_cell_length_a   3.79772498
_cell_length_b   3.79772498
_cell_length_c   7.40485963
_cell_angle_alpha   81.78517344
_cell_angle_beta   81.78517344
_cell_angle_gamma   90.02871833
_symmetry_Int_Tables_number   1
_chemical_formula_structural   NdCoC2
_chemical_formula_sum   'Nd2 Co2 C4'
_cell_volume   104.59391989
_cell_formula_units_Z   2
loop_
 _symmetry_equiv_pos_site_id
 _symmetry_equiv_pos_as_xyz
  1  'x, y, z'
loop_
 _atom_site_type_symbol
 _atom_site_label
 _atom_site_symmetry_multiplicity
 _atom_site_fract_x
 _atom_site_fract_y
 _atom_site_fract_z
 _atom_site_occupancy
  Nd  Nd0  1  0.06915800  0.92368900  0.45201400  1
  Nd  Nd1  1  0.92368900  0.06915800  0.95201400  1
  Co  Co2  1  0.62533600  0.48309000  0.25755800  1
  Co  Co3  1  0.48309000  0.62533600  0.75755800  1
  C  C4  1  0.40354900  0.55492500  0.02520200  1
  C  C5  1  0.55492500  0.40354900  0.52520100  1
  C  C6  1  0.50688800  0.14536500  0.67822700  1
  C  C7  1  0.14536500  0.50688800  0.17822700  1
