# generated using pymatgen
data_Pr4Ge7
_symmetry_space_group_name_H-M   'P 1'
_cell_length_a   7.69547250
_cell_length_b   7.69547250
_cell_length_c   12.16882000
_cell_angle_alpha   90.00000000
_cell_angle_beta   90.00000000
_cell_angle_gamma   133.44373158
_symmetry_Int_Tables_number   1
_chemical_formula_structural   Pr4Ge7
_chemical_formula_sum   'Pr8 Ge14'
_cell_volume   523.22151905
_cell_formula_units_Z   2
loop_
 _symmetry_equiv_pos_site_id
 _symmetry_equiv_pos_as_xyz
  1  'x, y, z'
loop_
 _atom_site_type_symbol
 _atom_site_label
 _atom_site_symmetry_multiplicity
 _atom_site_fract_x
 _atom_site_fract_y
 _atom_site_fract_z
 _atom_site_occupancy
  Pr  Pr0  1  0.51895700  0.00903400  0.11936700  1
  Pr  Pr1  1  0.00903400  0.51895700  0.88063300  1
  Pr  Pr2  1  0.48104300  0.99096600  0.61936700  1
  Pr  Pr3  1  0.99096600  0.48104300  0.38063300  1
  Pr  Pr4  1  0.49640100  0.50359900  0.25000000  1
  Pr  Pr5  1  0.50359900  0.49640100  0.75000000  1
  Pr  Pr6  1  0.98780100  0.98780100  0.50000000  1
  Pr  Pr7  1  0.01219900  0.01219900  0.00000000  1
  Ge  Ge8  1  0.57240000  0.39650700  0.48999700  1
  Ge  Ge9  1  0.39650700  0.57240000  0.51000300  1
  Ge  Ge10  1  0.42760000  0.60349300  0.98999700  1
  Ge  Ge11  1  0.60349300  0.42760000  0.01000300  1
  Ge  Ge12  1  0.58173900  0.92451500  0.37138500  1
  Ge  Ge13  1  0.92451500  0.58173900  0.62861500  1
  Ge  Ge14  1  0.41826100  0.07548500  0.87138500  1
  Ge  Ge15  1  0.07548500  0.41826100  0.12861500  1
  Ge  Ge16  1  0.32667200  0.02706800  0.33936600  1
  Ge  Ge17  1  0.02706800  0.32667200  0.66063400  1
  Ge  Ge18  1  0.67332800  0.97293200  0.83936600  1
  Ge  Ge19  1  0.97293200  0.67332800  0.16063400  1
  Ge  Ge20  1  0.93748200  0.06251800  0.25000000  1
  Ge  Ge21  1  0.06251800  0.93748200  0.75000000  1
