# generated using pymatgen
data_Tc3Ni
_symmetry_space_group_name_H-M   'P 1'
_cell_length_a   5.38434874
_cell_length_b   5.38434874
_cell_length_c   4.33432900
_cell_angle_alpha   90.00000000
_cell_angle_beta   90.00000000
_cell_angle_gamma   120.00000904
_symmetry_Int_Tables_number   1
_chemical_formula_structural   Tc3Ni
_chemical_formula_sum   'Tc6 Ni2'
_cell_volume   108.82253215
_cell_formula_units_Z   2
loop_
 _symmetry_equiv_pos_site_id
 _symmetry_equiv_pos_as_xyz
  1  'x, y, z'
loop_
 _atom_site_type_symbol
 _atom_site_label
 _atom_site_symmetry_multiplicity
 _atom_site_fract_x
 _atom_site_fract_y
 _atom_site_fract_z
 _atom_site_occupancy
  Tc  Tc0  1  0.83356100  0.66712200  0.75000000  1
  Tc  Tc1  1  0.16643900  0.83356100  0.25000000  1
  Tc  Tc2  1  0.66712200  0.83356100  0.25000000  1
  Tc  Tc3  1  0.16643900  0.33287800  0.25000000  1
  Tc  Tc4  1  0.83356100  0.16643900  0.75000000  1
  Tc  Tc5  1  0.33287800  0.16643900  0.75000000  1
  Ni  Ni6  1  0.66666700  0.33333300  0.25000000  1
  Ni  Ni7  1  0.33333300  0.66666700  0.75000000  1
