# generated using pymatgen
data_Y11In9Ni4
_symmetry_space_group_name_H-M   'P 1'
_cell_length_a   13.10692699
_cell_length_b   13.10692699
_cell_length_c   3.65168600
_cell_angle_alpha   90.00000000
_cell_angle_beta   90.00000000
_cell_angle_gamma   113.14027501
_symmetry_Int_Tables_number   1
_chemical_formula_structural   Y11In9Ni4
_chemical_formula_sum   'Y11 In9 Ni4'
_cell_volume   576.85731348
_cell_formula_units_Z   1
loop_
 _symmetry_equiv_pos_site_id
 _symmetry_equiv_pos_as_xyz
  1  'x, y, z'
loop_
 _atom_site_type_symbol
 _atom_site_label
 _atom_site_symmetry_multiplicity
 _atom_site_fract_x
 _atom_site_fract_y
 _atom_site_fract_z
 _atom_site_occupancy
  Y  Y0  1  0.07799900  0.41550000  0.00000000  1
  Y  Y1  1  0.92200100  0.58450000  0.00000000  1
  Y  Y2  1  0.41550000  0.07799900  0.00000000  1
  Y  Y3  1  0.58450000  0.92200100  0.00000000  1
  Y  Y4  1  0.62522700  0.37477300  0.00000000  1
  Y  Y5  1  0.37477300  0.62522700  0.00000000  1
  Y  Y6  1  0.83826400  0.16173600  0.00000000  1
  Y  Y7  1  0.16173600  0.83826400  0.00000000  1
  Y  Y8  1  0.00000000  0.00000000  0.00000000  1
  Y  Y9  1  0.31200000  0.31200000  0.00000000  1
  Y  Y10  1  0.68800000  0.68800000  0.00000000  1
  In  In11  1  0.84086400  0.36936300  0.50000000  1
  In  In12  1  0.15913600  0.63063700  0.50000000  1
  In  In13  1  0.36936300  0.84086400  0.50000000  1
  In  In14  1  0.63063700  0.15913600  0.50000000  1
  In  In15  1  0.07648600  0.21888100  0.50000000  1
  In  In16  1  0.92351400  0.78111900  0.50000000  1
  In  In17  1  0.21888100  0.07648600  0.50000000  1
  In  In18  1  0.78111900  0.92351400  0.50000000  1
  In  In19  1  0.50000000  0.50000000  0.50000000  1
  Ni  Ni20  1  0.24694300  0.44891800  0.50000000  1
  Ni  Ni21  1  0.75305700  0.55108200  0.50000000  1
  Ni  Ni22  1  0.44891800  0.24694300  0.50000000  1
  Ni  Ni23  1  0.55108200  0.75305700  0.50000000  1
