# generated using pymatgen
data_CaPdF4
_symmetry_space_group_name_H-M   'P 1'
_cell_length_a   6.65223047
_cell_length_b   6.65223047
_cell_length_c   6.65223047
_cell_angle_alpha   129.87028367
_cell_angle_beta   129.87028367
_cell_angle_gamma   73.61422277
_symmetry_Int_Tables_number   1
_chemical_formula_structural   CaPdF4
_chemical_formula_sum   'Ca2 Pd2 F8'
_cell_volume   169.20388275
_cell_formula_units_Z   2
loop_
 _symmetry_equiv_pos_site_id
 _symmetry_equiv_pos_as_xyz
  1  'x, y, z'
loop_
 _atom_site_type_symbol
 _atom_site_label
 _atom_site_symmetry_multiplicity
 _atom_site_fract_x
 _atom_site_fract_y
 _atom_site_fract_z
 _atom_site_occupancy
  Ca  Ca0  1  0.75000000  0.75000000  0.00000000  1
  Ca  Ca1  1  0.25000000  0.25000000  0.00000000  1
  Pd  Pd2  1  0.00000000  0.50000000  0.50000000  1
  Pd  Pd3  1  0.50000000  0.00000000  0.50000000  1
  F  F4  1  0.95999300  0.45999300  0.14768700  1
  F  F5  1  0.68769400  0.18769400  0.14768700  1
  F  F6  1  0.04000700  0.54000700  0.85231300  1
  F  F7  1  0.54000700  0.68769400  0.50000000  1
  F  F8  1  0.31230600  0.81230600  0.85231300  1
  F  F9  1  0.81230600  0.95999300  0.50000000  1
  F  F10  1  0.45999300  0.31230600  0.50000000  1
  F  F11  1  0.18769400  0.04000700  0.50000000  1
