# generated using pymatgen
data_AcGe3
_symmetry_space_group_name_H-M   'P 1'
_cell_length_a   6.64453516
_cell_length_b   6.64453516
_cell_length_c   4.96804100
_cell_angle_alpha   90.00000000
_cell_angle_beta   90.00000000
_cell_angle_gamma   119.99999162
_symmetry_Int_Tables_number   1
_chemical_formula_structural   AcGe3
_chemical_formula_sum   'Ac2 Ge6'
_cell_volume   189.95251460
_cell_formula_units_Z   2
loop_
 _symmetry_equiv_pos_site_id
 _symmetry_equiv_pos_as_xyz
  1  'x, y, z'
loop_
 _atom_site_type_symbol
 _atom_site_label
 _atom_site_symmetry_multiplicity
 _atom_site_fract_x
 _atom_site_fract_y
 _atom_site_fract_z
 _atom_site_occupancy
  Ac  Ac0  1  0.33333300  0.66666700  0.75000000  1
  Ac  Ac1  1  0.66666700  0.33333300  0.25000000  1
  Ge  Ge2  1  0.13698900  0.27397700  0.25000000  1
  Ge  Ge3  1  0.72602300  0.86301100  0.25000000  1
  Ge  Ge4  1  0.13698900  0.86301100  0.25000000  1
  Ge  Ge5  1  0.86301100  0.72602300  0.75000000  1
  Ge  Ge6  1  0.27397700  0.13698900  0.75000000  1
  Ge  Ge7  1  0.86301100  0.13698900  0.75000000  1
