# generated using pymatgen
data_RbZnH2Se2BrO6
_symmetry_space_group_name_H-M   'P 1'
_cell_length_a   6.23994600
_cell_length_b   6.56593000
_cell_length_c   10.95020061
_cell_angle_alpha   77.16217136
_cell_angle_beta   90.00000000
_cell_angle_gamma   90.00000000
_symmetry_Int_Tables_number   1
_chemical_formula_structural   RbZnH2Se2BrO6
_chemical_formula_sum   'Rb2 Zn2 H4 Se4 Br2 O12'
_cell_volume   437.42645847
_cell_formula_units_Z   2
loop_
 _symmetry_equiv_pos_site_id
 _symmetry_equiv_pos_as_xyz
  1  'x, y, z'
loop_
 _atom_site_type_symbol
 _atom_site_label
 _atom_site_symmetry_multiplicity
 _atom_site_fract_x
 _atom_site_fract_y
 _atom_site_fract_z
 _atom_site_occupancy
  Rb  Rb0  1  0.83741800  0.50000000  0.25000000  1
  Rb  Rb1  1  0.16258200  0.50000000  0.75000000  1
  Zn  Zn2  1  0.45043400  0.00000000  0.25000000  1
  Zn  Zn3  1  0.54956600  0.00000000  0.75000000  1
  H  H4  1  0.34341200  0.42813900  0.09138000  1
  H  H5  1  0.34341200  0.57186100  0.40862000  1
  H  H6  1  0.65658800  0.42813900  0.59138000  1
  H  H7  1  0.65658800  0.57186100  0.90862000  1
  Se  Se8  1  0.31542100  0.79369000  0.01339400  1
  Se  Se9  1  0.31542100  0.20631000  0.48660600  1
  Se  Se10  1  0.68457900  0.79369000  0.51339400  1
  Se  Se11  1  0.68457900  0.20631000  0.98660600  1
  Br  Br12  1  0.05434600  0.00000000  0.25000000  1
  Br  Br13  1  0.94565400  0.00000000  0.75000000  1
  O  O14  1  0.21892400  0.53218700  0.07831900  1
  O  O15  1  0.52099400  0.81612900  0.11439100  1
  O  O16  1  0.54771700  0.25790700  0.11566900  1
  O  O17  1  0.54771700  0.74209300  0.38433100  1
  O  O18  1  0.52099400  0.18387100  0.38560900  1
  O  O19  1  0.21892400  0.46781300  0.42168100  1
  O  O20  1  0.78107600  0.53218700  0.57831900  1
  O  O21  1  0.47900600  0.81612900  0.61439100  1
  O  O22  1  0.45228300  0.25790700  0.61566900  1
  O  O23  1  0.45228300  0.74209300  0.88433100  1
  O  O24  1  0.47900600  0.18387100  0.88560900  1
  O  O25  1  0.78107600  0.46781300  0.92168100  1
