# generated using pymatgen
data_Dy2Ni7
_symmetry_space_group_name_H-M   'P 1'
_cell_length_a   12.35815169
_cell_length_b   12.35815169
_cell_length_c   12.35815208
_cell_angle_alpha   22.97263944
_cell_angle_beta   22.97263944
_cell_angle_gamma   22.97264289
_symmetry_Int_Tables_number   1
_chemical_formula_structural   Dy2Ni7
_chemical_formula_sum   'Dy4 Ni14'
_cell_volume   252.31677380
_cell_formula_units_Z   2
loop_
 _symmetry_equiv_pos_site_id
 _symmetry_equiv_pos_as_xyz
  1  'x, y, z'
loop_
 _atom_site_type_symbol
 _atom_site_label
 _atom_site_symmetry_multiplicity
 _atom_site_fract_x
 _atom_site_fract_y
 _atom_site_fract_z
 _atom_site_occupancy
  Dy  Dy0  1  0.94925200  0.94925200  0.94925200  1
  Dy  Dy1  1  0.85268000  0.85268000  0.85268000  1
  Dy  Dy2  1  0.14732000  0.14732000  0.14732000  1
  Dy  Dy3  1  0.05074800  0.05074800  0.05074800  1
  Ni  Ni4  1  0.50000000  0.00000000  0.50000000  1
  Ni  Ni5  1  0.50000000  0.50000000  0.00000000  1
  Ni  Ni6  1  0.00000000  0.50000000  0.50000000  1
  Ni  Ni7  1  0.61165400  0.61165400  0.61165400  1
  Ni  Ni8  1  0.27809700  0.27809700  0.27809700  1
  Ni  Ni9  1  0.38981100  0.89107300  0.38981100  1
  Ni  Ni10  1  0.89107300  0.38981100  0.38981100  1
  Ni  Ni11  1  0.38981100  0.38981100  0.89107300  1
  Ni  Ni12  1  0.50000000  0.50000000  0.50000000  1
  Ni  Ni13  1  0.61018900  0.61018900  0.10892700  1
  Ni  Ni14  1  0.10892700  0.61018900  0.61018900  1
  Ni  Ni15  1  0.61018900  0.10892700  0.61018900  1
  Ni  Ni16  1  0.72190300  0.72190300  0.72190300  1
  Ni  Ni17  1  0.38834600  0.38834600  0.38834600  1
