# generated using pymatgen
data_La2Si4CN6
_symmetry_space_group_name_H-M   'P 1'
_cell_length_a   6.04106200
_cell_length_b   10.22881600
_cell_length_c   10.59125900
_cell_angle_alpha   90.00000000
_cell_angle_beta   90.00000000
_cell_angle_gamma   90.00000000
_symmetry_Int_Tables_number   1
_chemical_formula_structural   La2Si4CN6
_chemical_formula_sum   'La8 Si16 C4 N24'
_cell_volume   654.46473157
_cell_formula_units_Z   4
loop_
 _symmetry_equiv_pos_site_id
 _symmetry_equiv_pos_as_xyz
  1  'x, y, z'
loop_
 _atom_site_type_symbol
 _atom_site_label
 _atom_site_symmetry_multiplicity
 _atom_site_fract_x
 _atom_site_fract_y
 _atom_site_fract_z
 _atom_site_occupancy
  La  La0  1  0.75000000  0.04909700  0.39589600  1
  La  La1  1  0.25000000  0.45090300  0.89589600  1
  La  La2  1  0.75000000  0.40732500  0.43926400  1
  La  La3  1  0.25000000  0.09267500  0.93926400  1
  La  La4  1  0.75000000  0.90732500  0.06073600  1
  La  La5  1  0.25000000  0.59267500  0.56073600  1
  La  La6  1  0.75000000  0.54909700  0.10410400  1
  La  La7  1  0.25000000  0.95090300  0.60410400  1
  Si  Si8  1  0.75000000  0.51763000  0.73869500  1
  Si  Si9  1  0.25000000  0.98237000  0.23869500  1
  Si  Si10  1  0.75000000  0.01763000  0.76130500  1
  Si  Si11  1  0.25000000  0.48237000  0.26130500  1
  Si  Si12  1  0.75000000  0.29815100  0.92453000  1
  Si  Si13  1  0.25000000  0.20184900  0.42453000  1
  Si  Si14  1  0.75000000  0.79815100  0.57547000  1
  Si  Si15  1  0.25000000  0.70184900  0.07547000  1
  Si  Si16  1  0.50338800  0.72740100  0.32989700  1
  Si  Si17  1  0.49661200  0.77259900  0.82989700  1
  Si  Si18  1  0.99661200  0.22740100  0.17010300  1
  Si  Si19  1  0.00338800  0.27259900  0.67010300  1
  Si  Si20  1  0.49661200  0.27259900  0.67010300  1
  Si  Si21  1  0.50338800  0.22740100  0.17010300  1
  Si  Si22  1  0.00338800  0.77259900  0.82989700  1
  Si  Si23  1  0.99661200  0.72740100  0.32989700  1
  C  C24  1  0.75000000  0.20514900  0.76412300  1
  C  C25  1  0.25000000  0.29485100  0.26412300  1
  C  C26  1  0.75000000  0.70514900  0.73587700  1
  C  C27  1  0.25000000  0.79485100  0.23587700  1
  N  N28  1  0.75000000  0.96600000  0.60730800  1
  N  N29  1  0.25000000  0.53400000  0.10730800  1
  N  N30  1  0.00915000  0.72030500  0.98647200  1
  N  N31  1  0.99085000  0.77969500  0.48647200  1
  N  N32  1  0.49085000  0.22030500  0.51352800  1
  N  N33  1  0.50915000  0.27969500  0.01352800  1
  N  N34  1  0.99085000  0.27969500  0.01352800  1
  N  N35  1  0.00915000  0.22030500  0.51352800  1
  N  N36  1  0.50915000  0.77969500  0.48647200  1
  N  N37  1  0.98015900  0.44577600  0.66477100  1
  N  N38  1  0.51984100  0.44577600  0.66477100  1
  N  N39  1  0.48015900  0.05422400  0.16477100  1
  N  N40  1  0.98015900  0.94577600  0.83522900  1
  N  N41  1  0.01984100  0.55422400  0.33522900  1
  N  N42  1  0.25000000  0.23122100  0.74698300  1
  N  N43  1  0.75000000  0.26877900  0.24698300  1
  N  N44  1  0.25000000  0.73122100  0.75301700  1
  N  N45  1  0.75000000  0.76877900  0.25301700  1
  N  N46  1  0.49085000  0.72030500  0.98647200  1
  N  N47  1  0.48015900  0.55422400  0.33522900  1
  N  N48  1  0.51984100  0.94577600  0.83522900  1
  N  N49  1  0.01984100  0.05422400  0.16477100  1
  N  N50  1  0.75000000  0.46600000  0.89269200  1
  N  N51  1  0.25000000  0.03400000  0.39269200  1
