# generated using pymatgen
data_NdCrSe3
_symmetry_space_group_name_H-M   'P 1'
_cell_length_a   3.96878700
_cell_length_b   8.14227600
_cell_length_c   13.73027200
_cell_angle_alpha   90.00000000
_cell_angle_beta   90.00000000
_cell_angle_gamma   90.00000000
_symmetry_Int_Tables_number   1
_chemical_formula_structural   NdCrSe3
_chemical_formula_sum   'Nd4 Cr4 Se12'
_cell_volume   443.69317865
_cell_formula_units_Z   4
loop_
 _symmetry_equiv_pos_site_id
 _symmetry_equiv_pos_as_xyz
  1  'x, y, z'
loop_
 _atom_site_type_symbol
 _atom_site_label
 _atom_site_symmetry_multiplicity
 _atom_site_fract_x
 _atom_site_fract_y
 _atom_site_fract_z
 _atom_site_occupancy
  Nd  Nd0  1  0.25000000  0.09661400  0.17106200  1
  Nd  Nd1  1  0.75000000  0.40338600  0.67106200  1
  Nd  Nd2  1  0.25000000  0.59661400  0.32893800  1
  Nd  Nd3  1  0.75000000  0.90338600  0.82893800  1
  Cr  Cr4  1  0.75000000  0.66128500  0.05128100  1
  Cr  Cr5  1  0.25000000  0.33871500  0.94871900  1
  Cr  Cr6  1  0.75000000  0.16128500  0.44871900  1
  Cr  Cr7  1  0.25000000  0.83871500  0.55128100  1
  Se  Se8  1  0.25000000  0.48647300  0.10902100  1
  Se  Se9  1  0.25000000  0.84350900  0.99616500  1
  Se  Se10  1  0.75000000  0.51352700  0.89097900  1
  Se  Se11  1  0.25000000  0.34350900  0.50383500  1
  Se  Se12  1  0.75000000  0.15649100  0.00383500  1
  Se  Se13  1  0.75000000  0.81063100  0.21208900  1
  Se  Se14  1  0.25000000  0.68936900  0.71208900  1
  Se  Se15  1  0.75000000  0.31063100  0.28791100  1
  Se  Se16  1  0.25000000  0.18936900  0.78791100  1
  Se  Se17  1  0.75000000  0.65649100  0.49616500  1
  Se  Se18  1  0.25000000  0.98647300  0.39097900  1
  Se  Se19  1  0.75000000  0.01352700  0.60902100  1
