# generated using pymatgen
data_SrNiSn2
_symmetry_space_group_name_H-M   'P 1'
_cell_length_a   9.72663588
_cell_length_b   9.72663588
_cell_length_c   4.59327100
_cell_angle_alpha   90.00000000
_cell_angle_beta   90.00000000
_cell_angle_gamma   152.34495767
_symmetry_Int_Tables_number   1
_chemical_formula_structural   SrNiSn2
_chemical_formula_sum   'Sr2 Ni2 Sn4'
_cell_volume   201.69869697
_cell_formula_units_Z   2
loop_
 _symmetry_equiv_pos_site_id
 _symmetry_equiv_pos_as_xyz
  1  'x, y, z'
loop_
 _atom_site_type_symbol
 _atom_site_label
 _atom_site_symmetry_multiplicity
 _atom_site_fract_x
 _atom_site_fract_y
 _atom_site_fract_z
 _atom_site_occupancy
  Sr  Sr0  1  0.39049100  0.60950900  0.75000000  1
  Sr  Sr1  1  0.60950900  0.39049100  0.25000000  1
  Ni  Ni2  1  0.81858200  0.18141800  0.25000000  1
  Ni  Ni3  1  0.18141800  0.81858200  0.75000000  1
  Sn  Sn4  1  0.95282200  0.04717800  0.25000000  1
  Sn  Sn5  1  0.75058900  0.24941100  0.75000000  1
  Sn  Sn6  1  0.24941100  0.75058900  0.25000000  1
  Sn  Sn7  1  0.04717800  0.95282200  0.75000000  1
