# generated using pymatgen
data_CsNd2CuSe4
_symmetry_space_group_name_H-M   'P 1'
_cell_length_a   7.78658566
_cell_length_b   7.78658566
_cell_length_c   14.77148800
_cell_angle_alpha   90.00000000
_cell_angle_beta   90.00000000
_cell_angle_gamma   148.17100054
_symmetry_Int_Tables_number   1
_chemical_formula_structural   CsNd2CuSe4
_chemical_formula_sum   'Cs2 Nd4 Cu2 Se8'
_cell_volume   472.33147027
_cell_formula_units_Z   2
loop_
 _symmetry_equiv_pos_site_id
 _symmetry_equiv_pos_as_xyz
  1  'x, y, z'
loop_
 _atom_site_type_symbol
 _atom_site_label
 _atom_site_symmetry_multiplicity
 _atom_site_fract_x
 _atom_site_fract_y
 _atom_site_fract_z
 _atom_site_occupancy
  Cs  Cs0  1  0.89387200  0.10612800  0.25000000  1
  Cs  Cs1  1  0.10612800  0.89387200  0.75000000  1
  Nd  Nd2  1  0.63447500  0.36552500  0.06163400  1
  Nd  Nd3  1  0.36552500  0.63447500  0.56163400  1
  Nd  Nd4  1  0.36552500  0.63447500  0.93836600  1
  Nd  Nd5  1  0.63447500  0.36552500  0.43836600  1
  Cu  Cu6  1  0.16437100  0.83562900  0.25000000  1
  Cu  Cu7  1  0.83562900  0.16437100  0.75000000  1
  Se  Se8  1  0.74034800  0.25965200  0.61103700  1
  Se  Se9  1  0.25965200  0.74034800  0.11103700  1
  Se  Se10  1  0.25965200  0.74034800  0.38896300  1
  Se  Se11  1  0.74034800  0.25965200  0.88896300  1
  Se  Se12  1  0.00000000  0.00000000  0.00000000  1
  Se  Se13  1  0.00000000  0.00000000  0.50000000  1
  Se  Se14  1  0.57721300  0.42278700  0.25000000  1
  Se  Se15  1  0.42278700  0.57721300  0.75000000  1
