# generated using pymatgen
data_LiPrGe
_symmetry_space_group_name_H-M   'P 1'
_cell_length_a   7.37010598
_cell_length_b   7.37010598
_cell_length_c   4.40339200
_cell_angle_alpha   90.00000000
_cell_angle_beta   90.00000000
_cell_angle_gamma   119.99999981
_symmetry_Int_Tables_number   1
_chemical_formula_structural   LiPrGe
_chemical_formula_sum   'Li3 Pr3 Ge3'
_cell_volume   207.14070371
_cell_formula_units_Z   3
loop_
 _symmetry_equiv_pos_site_id
 _symmetry_equiv_pos_as_xyz
  1  'x, y, z'
loop_
 _atom_site_type_symbol
 _atom_site_label
 _atom_site_symmetry_multiplicity
 _atom_site_fract_x
 _atom_site_fract_y
 _atom_site_fract_z
 _atom_site_occupancy
  Li  Li0  1  0.76703200  0.76703200  0.50000000  1
  Li  Li1  1  0.23296800  0.00000000  0.50000000  1
  Li  Li2  1  0.00000000  0.23296800  0.50000000  1
  Pr  Pr3  1  0.00000000  0.58208700  0.00000000  1
  Pr  Pr4  1  0.41791300  0.41791300  0.00000000  1
  Pr  Pr5  1  0.58208700  0.00000000  0.00000000  1
  Ge  Ge6  1  0.33333300  0.66666700  0.50000000  1
  Ge  Ge7  1  0.66666700  0.33333300  0.50000000  1
  Ge  Ge8  1  0.00000000  0.00000000  0.00000000  1
