# generated using pymatgen
data_Sm2Au5F21
_symmetry_space_group_name_H-M   'P 1'
_cell_length_a   8.38386900
_cell_length_b   8.38386900
_cell_length_c   26.22385100
_cell_angle_alpha   90.00000000
_cell_angle_beta   90.00000000
_cell_angle_gamma   90.00000000
_symmetry_Int_Tables_number   1
_chemical_formula_structural   Sm2Au5F21
_chemical_formula_sum   'Sm8 Au20 F84'
_cell_volume   1843.25506565
_cell_formula_units_Z   4
loop_
 _symmetry_equiv_pos_site_id
 _symmetry_equiv_pos_as_xyz
  1  'x, y, z'
loop_
 _atom_site_type_symbol
 _atom_site_label
 _atom_site_symmetry_multiplicity
 _atom_site_fract_x
 _atom_site_fract_y
 _atom_site_fract_z
 _atom_site_occupancy
  Sm  Sm0  1  0.55580500  0.92951100  0.99839600  1
  Sm  Sm1  1  0.44419500  0.07048900  0.49839600  1
  Sm  Sm2  1  0.92951100  0.55580500  0.00160400  1
  Sm  Sm3  1  0.42951100  0.94419500  0.74839600  1
  Sm  Sm4  1  0.57048900  0.05580500  0.24839600  1
  Sm  Sm5  1  0.94419500  0.42951100  0.25160400  1
  Sm  Sm6  1  0.05580500  0.57048900  0.75160400  1
  Sm  Sm7  1  0.07048900  0.44419500  0.50160400  1
  Au  Au8  1  0.40626700  0.35574800  0.84201300  1
  Au  Au9  1  0.59373300  0.64425200  0.34201300  1
  Au  Au10  1  0.35574800  0.40626700  0.15798700  1
  Au  Au11  1  0.85574800  0.09373300  0.59201300  1
  Au  Au12  1  0.14425200  0.90626700  0.09201300  1
  Au  Au13  1  0.09373300  0.85574800  0.40798700  1
  Au  Au14  1  0.90626700  0.14425200  0.90798700  1
  Au  Au15  1  0.64425200  0.59373300  0.65798700  1
  Au  Au16  1  0.21140900  0.82235200  0.88948800  1
  Au  Au17  1  0.78859100  0.17764800  0.38948800  1
  Au  Au18  1  0.82235200  0.21140900  0.11051200  1
  Au  Au19  1  0.32235200  0.28859100  0.63948800  1
  Au  Au20  1  0.67764800  0.71140900  0.13948800  1
  Au  Au21  1  0.28859100  0.32235200  0.36051200  1
  Au  Au22  1  0.71140900  0.67764800  0.86051200  1
  Au  Au23  1  0.17764800  0.78859100  0.61051200  1
  Au  Au24  1  0.56099500  0.56099500  0.50000000  1
  Au  Au25  1  0.93900500  0.06099500  0.75000000  1
  Au  Au26  1  0.06099500  0.93900500  0.25000000  1
  Au  Au27  1  0.43900500  0.43900500  0.00000000  1
  F  F28  1  0.59702700  0.30663500  0.88017600  1
  F  F29  1  0.40297300  0.69336500  0.38017600  1
  F  F30  1  0.30663500  0.59702700  0.11982400  1
  F  F31  1  0.80663500  0.90297300  0.63017600  1
  F  F32  1  0.19336500  0.09702700  0.13017600  1
  F  F33  1  0.90297300  0.80663500  0.36982400  1
  F  F34  1  0.09702700  0.19336500  0.86982400  1
  F  F35  1  0.69336500  0.40297300  0.61982400  1
  F  F36  1  0.72090400  0.09375500  0.05383400  1
  F  F37  1  0.27909600  0.90624500  0.55383300  1
  F  F38  1  0.09375500  0.72090400  0.94616700  1
  F  F39  1  0.59375500  0.77909600  0.80383300  1
  F  F40  1  0.40624500  0.22090400  0.30383400  1
  F  F41  1  0.77909600  0.59375500  0.19616600  1
  F  F42  1  0.22090400  0.40624500  0.69616700  1
  F  F43  1  0.90624500  0.27909600  0.44616600  1
  F  F44  1  0.97536500  0.86295900  0.14094700  1
  F  F45  1  0.02463500  0.13704100  0.64094700  1
  F  F46  1  0.86295900  0.97536500  0.85905300  1
  F  F47  1  0.36295900  0.52463500  0.89094700  1
  F  F48  1  0.63704100  0.47536500  0.39094700  1
  F  F49  1  0.52463500  0.36295900  0.10905300  1
  F  F50  1  0.47536500  0.63704100  0.60905300  1
  F  F51  1  0.13704100  0.02463500  0.35905300  1
  F  F52  1  0.31385700  0.95940600  0.04261200  1
  F  F53  1  0.68614300  0.04059400  0.54261200  1
  F  F54  1  0.95940600  0.31385700  0.95738800  1
  F  F55  1  0.54059400  0.81385700  0.29261200  1
  F  F56  1  0.45940600  0.18614300  0.79261200  1
  F  F57  1  0.29485300  0.93918600  0.24841300  1
  F  F58  1  0.70514700  0.06081400  0.74841300  1
  F  F59  1  0.93918600  0.29485300  0.75158700  1
  F  F60  1  0.06081400  0.70514700  0.25158700  1
  F  F61  1  0.56081400  0.79485300  0.49841300  1
  F  F62  1  0.20514700  0.43918600  0.00158700  1
  F  F63  1  0.79485300  0.56081400  0.50158700  1
  F  F64  1  0.20030300  0.41291900  0.58924300  1
  F  F65  1  0.08708100  0.70030300  0.83924300  1
  F  F66  1  0.91291900  0.29969700  0.33924300  1
  F  F67  1  0.70030300  0.08708100  0.16075700  1
  F  F68  1  0.29969700  0.91291900  0.66075700  1
  F  F69  1  0.79969700  0.58708100  0.08924300  1
  F  F70  1  0.41291900  0.20030300  0.41075700  1
  F  F71  1  0.58708100  0.79969700  0.91075700  1
  F  F72  1  0.45161600  0.16973600  0.68978500  1
  F  F73  1  0.33026400  0.95161600  0.93978500  1
  F  F74  1  0.66973600  0.04838400  0.43978500  1
  F  F75  1  0.95161600  0.33026400  0.06021500  1
  F  F76  1  0.04838400  0.66973600  0.56021500  1
  F  F77  1  0.54838400  0.83026400  0.18978500  1
  F  F78  1  0.16973600  0.45161600  0.31021500  1
  F  F79  1  0.83026400  0.54838400  0.81021500  1
  F  F80  1  0.32584200  0.56440000  0.50056800  1
  F  F81  1  0.93560000  0.82584200  0.75056800  1
  F  F82  1  0.06440000  0.17415800  0.25056800  1
  F  F83  1  0.82584200  0.93560000  0.24943200  1
  F  F84  1  0.17415800  0.06440000  0.74943200  1
  F  F85  1  0.67415800  0.43560000  0.00056800  1
  F  F86  1  0.56440000  0.32584200  0.49943200  1
  F  F87  1  0.43560000  0.67415800  0.99943200  1
  F  F88  1  0.17374300  0.43324300  0.41520400  1
  F  F89  1  0.06675700  0.67374300  0.66520400  1
  F  F90  1  0.93324300  0.32625700  0.16520400  1
  F  F91  1  0.67374300  0.06675700  0.33479600  1
  F  F92  1  0.32625700  0.93324300  0.83479600  1
  F  F93  1  0.82625700  0.56675700  0.91520400  1
  F  F94  1  0.43324300  0.17374300  0.58479600  1
  F  F95  1  0.56675700  0.82625700  0.08479600  1
  F  F96  1  0.22160400  0.22160400  0.50000000  1
  F  F97  1  0.27839600  0.72160400  0.75000000  1
  F  F98  1  0.72160400  0.27839600  0.25000000  1
  F  F99  1  0.77839600  0.77839600  0.00000000  1
  F  F100  1  0.91209800  0.28694500  0.55183500  1
  F  F101  1  0.21305500  0.41209800  0.80183500  1
  F  F102  1  0.78694500  0.58790200  0.30183500  1
  F  F103  1  0.41209800  0.21305500  0.19816500  1
  F  F104  1  0.58790200  0.78694500  0.69816500  1
  F  F105  1  0.08790200  0.71305500  0.05183500  1
  F  F106  1  0.28694500  0.91209800  0.44816500  1
  F  F107  1  0.71305500  0.08790200  0.94816500  1
  F  F108  1  0.04059400  0.68614300  0.45738800  1
  F  F109  1  0.81385700  0.54059400  0.70738800  1
  F  F110  1  0.18614300  0.45940600  0.20738800  1
  F  F111  1  0.43918600  0.20514700  0.99841300  1
