# generated using pymatgen
data_DyBr3
_symmetry_space_group_name_H-M   'P 1'
_cell_length_a   10.70915227
_cell_length_b   10.70915227
_cell_length_c   3.74393500
_cell_angle_alpha   90.00000000
_cell_angle_beta   90.00000000
_cell_angle_gamma   120.00000169
_symmetry_Int_Tables_number   1
_chemical_formula_structural   DyBr3
_chemical_formula_sum   'Dy2 Br6'
_cell_volume   371.85113560
_cell_formula_units_Z   2
loop_
 _symmetry_equiv_pos_site_id
 _symmetry_equiv_pos_as_xyz
  1  'x, y, z'
loop_
 _atom_site_type_symbol
 _atom_site_label
 _atom_site_symmetry_multiplicity
 _atom_site_fract_x
 _atom_site_fract_y
 _atom_site_fract_z
 _atom_site_occupancy
  Dy  Dy0  1  0.33333300  0.66666700  0.75000000  1
  Dy  Dy1  1  0.66666700  0.33333300  0.25000000  1
  Br  Br2  1  0.21908600  0.43817200  0.25000000  1
  Br  Br3  1  0.56182800  0.78091400  0.25000000  1
  Br  Br4  1  0.21908600  0.78091400  0.25000000  1
  Br  Br5  1  0.78091400  0.56182800  0.75000000  1
  Br  Br6  1  0.43817200  0.21908600  0.75000000  1
  Br  Br7  1  0.78091400  0.21908600  0.75000000  1
