# generated using pymatgen
data_Cr2N
_symmetry_space_group_name_H-M   'P 1'
_cell_length_a   4.78461377
_cell_length_b   4.78461377
_cell_length_c   4.40968400
_cell_angle_alpha   90.00000000
_cell_angle_beta   90.00000000
_cell_angle_gamma   119.99999675
_symmetry_Int_Tables_number   1
_chemical_formula_structural   Cr2N
_chemical_formula_sum   'Cr6 N3'
_cell_volume   87.42424401
_cell_formula_units_Z   3
loop_
 _symmetry_equiv_pos_site_id
 _symmetry_equiv_pos_as_xyz
  1  'x, y, z'
loop_
 _atom_site_type_symbol
 _atom_site_label
 _atom_site_symmetry_multiplicity
 _atom_site_fract_x
 _atom_site_fract_y
 _atom_site_fract_z
 _atom_site_occupancy
  Cr  Cr0  1  0.00000000  0.67372400  0.74651900  1
  Cr  Cr1  1  0.67372400  0.00000000  0.74651900  1
  Cr  Cr2  1  0.32627600  0.32627600  0.74651900  1
  Cr  Cr3  1  0.67372400  0.67372400  0.25348100  1
  Cr  Cr4  1  0.00000000  0.32627600  0.25348100  1
  Cr  Cr5  1  0.32627600  0.00000000  0.25348100  1
  N  N6  1  0.00000000  0.00000000  0.00000000  1
  N  N7  1  0.66666700  0.33333300  0.50000000  1
  N  N8  1  0.33333300  0.66666700  0.50000000  1
