# generated using pymatgen
data_YbZn11
_symmetry_space_group_name_H-M   'P 1'
_cell_length_a   8.28675810
_cell_length_b   8.28675810
_cell_length_c   8.28675810
_cell_angle_alpha   99.81467332
_cell_angle_beta   99.81467332
_cell_angle_gamma   131.22946352
_symmetry_Int_Tables_number   1
_chemical_formula_structural   YbZn11
_chemical_formula_sum   'Yb2 Zn22'
_cell_volume   389.79291998
_cell_formula_units_Z   2
loop_
 _symmetry_equiv_pos_site_id
 _symmetry_equiv_pos_as_xyz
  1  'x, y, z'
loop_
 _atom_site_type_symbol
 _atom_site_label
 _atom_site_symmetry_multiplicity
 _atom_site_fract_x
 _atom_site_fract_y
 _atom_site_fract_z
 _atom_site_occupancy
  Yb  Yb0  1  0.50000000  0.50000000  0.00000000  1
  Yb  Yb1  1  0.75000000  0.25000000  0.50000000  1
  Zn  Zn2  1  0.40345700  0.07771200  0.08379400  1
  Zn  Zn3  1  0.99391800  0.31966300  0.91620600  1
  Zn  Zn4  1  0.25608200  0.67228800  0.82574500  1
  Zn  Zn5  1  0.84654300  0.43033700  0.17425500  1
  Zn  Zn6  1  0.92228800  0.59654300  0.91620600  1
  Zn  Zn7  1  0.68033700  0.00608200  0.08379400  1
  Zn  Zn8  1  0.32771200  0.74391800  0.17425500  1
  Zn  Zn9  1  0.56966300  0.15345700  0.82574500  1
  Zn  Zn10  1  0.84654300  0.67228800  0.41620600  1
  Zn  Zn11  1  0.25608200  0.43033700  0.58379400  1
  Zn  Zn12  1  0.99391800  0.07771200  0.67425500  1
  Zn  Zn13  1  0.40345700  0.31966300  0.32574500  1
  Zn  Zn14  1  0.32771200  0.15345700  0.58379400  1
  Zn  Zn15  1  0.56966300  0.74391800  0.41620600  1
  Zn  Zn16  1  0.92228800  0.00608200  0.32574500  1
  Zn  Zn17  1  0.68033700  0.59654300  0.67425500  1
  Zn  Zn18  1  0.25000000  0.75000000  0.50000000  1
  Zn  Zn19  1  0.00000000  0.00000000  0.00000000  1
  Zn  Zn20  1  0.12500000  0.87500000  0.75000000  1
  Zn  Zn21  1  0.12500000  0.37500000  0.25000000  1
  Zn  Zn22  1  0.12500000  0.87500000  0.25000000  1
  Zn  Zn23  1  0.62500000  0.87500000  0.75000000  1
