# generated using pymatgen
data_K3NdSi2O7
_symmetry_space_group_name_H-M   'P 1'
_cell_length_a   10.16324221
_cell_length_b   10.16324221
_cell_length_c   14.73957800
_cell_angle_alpha   90.00000000
_cell_angle_beta   90.00000000
_cell_angle_gamma   120.00000137
_symmetry_Int_Tables_number   1
_chemical_formula_structural   K3NdSi2O7
_chemical_formula_sum   'K18 Nd6 Si12 O42'
_cell_volume   1318.50028197
_cell_formula_units_Z   6
loop_
 _symmetry_equiv_pos_site_id
 _symmetry_equiv_pos_as_xyz
  1  'x, y, z'
loop_
 _atom_site_type_symbol
 _atom_site_label
 _atom_site_symmetry_multiplicity
 _atom_site_fract_x
 _atom_site_fract_y
 _atom_site_fract_z
 _atom_site_occupancy
  K  K0  1  0.33062600  0.00000000  0.41055900  1
  K  K1  1  0.00000000  0.33062600  0.41055900  1
  K  K2  1  0.66937400  0.66937400  0.41055900  1
  K  K3  1  0.33062600  0.33062600  0.91055900  1
  K  K4  1  0.66937400  0.66937400  0.08944100  1
  K  K5  1  0.66937400  0.00000000  0.91055900  1
  K  K6  1  0.00000000  0.66937400  0.91055900  1
  K  K7  1  0.00000000  0.66937400  0.58944100  1
  K  K8  1  0.66937400  0.00000000  0.58944100  1
  K  K9  1  0.33062600  0.00000000  0.08944100  1
  K  K10  1  0.00000000  0.33062600  0.08944100  1
  K  K11  1  0.33062600  0.33062600  0.58944100  1
  K  K12  1  0.00000000  0.00000000  0.50000000  1
  K  K13  1  0.00000000  0.00000000  0.00000000  1
  K  K14  1  0.66666700  0.33333300  0.75000000  1
  K  K15  1  0.33333300  0.66666700  0.25000000  1
  K  K16  1  0.33333300  0.66666700  0.75000000  1
  K  K17  1  0.66666700  0.33333300  0.25000000  1
  Nd  Nd18  1  0.66666700  0.33333300  0.50000000  1
  Nd  Nd19  1  0.33333300  0.66666700  0.00000000  1
  Nd  Nd20  1  0.33333300  0.66666700  0.50000000  1
  Nd  Nd21  1  0.66666700  0.33333300  0.00000000  1
  Nd  Nd22  1  0.00000000  0.00000000  0.75000000  1
  Nd  Nd23  1  0.00000000  0.00000000  0.25000000  1
  Si  Si24  1  0.66000300  0.00000000  0.35628600  1
  Si  Si25  1  0.00000000  0.66000300  0.35628600  1
  Si  Si26  1  0.33999700  0.33999700  0.35628600  1
  Si  Si27  1  0.66000300  0.66000300  0.85628600  1
  Si  Si28  1  0.33999700  0.33999700  0.14371400  1
  Si  Si29  1  0.33999700  0.00000000  0.85628600  1
  Si  Si30  1  0.00000000  0.33999700  0.85628600  1
  Si  Si31  1  0.00000000  0.33999700  0.64371400  1
  Si  Si32  1  0.33999700  0.00000000  0.64371400  1
  Si  Si33  1  0.66000300  0.00000000  0.14371400  1
  Si  Si34  1  0.00000000  0.66000300  0.14371400  1
  Si  Si35  1  0.66000300  0.66000300  0.64371400  1
  O  O36  1  0.32157700  0.47431900  0.09429300  1
  O  O37  1  0.52568100  0.84725900  0.09429300  1
  O  O38  1  0.15274100  0.67842300  0.09429300  1
  O  O39  1  0.84725900  0.32157700  0.59429300  1
  O  O40  1  0.67842300  0.15274100  0.40570700  1
  O  O41  1  0.67842300  0.52568100  0.59429300  1
  O  O42  1  0.47431900  0.15274100  0.59429300  1
  O  O43  1  0.52568100  0.67842300  0.90570700  1
  O  O44  1  0.15274100  0.47431900  0.90570700  1
  O  O45  1  0.84725900  0.52568100  0.40570700  1
  O  O46  1  0.47431900  0.32157700  0.40570700  1
  O  O47  1  0.32157700  0.84725900  0.90570700  1
  O  O48  1  0.67842300  0.52568100  0.90570700  1
  O  O49  1  0.47431900  0.15274100  0.90570700  1
  O  O50  1  0.84725900  0.32157700  0.90570700  1
  O  O51  1  0.15274100  0.67842300  0.40570700  1
  O  O52  1  0.32157700  0.84725900  0.59429300  1
  O  O53  1  0.32157700  0.47431900  0.40570700  1
  O  O54  1  0.52568100  0.84725900  0.40570700  1
  O  O55  1  0.47431900  0.32157700  0.09429300  1
  O  O56  1  0.84725900  0.52568100  0.09429300  1
  O  O57  1  0.15274100  0.47431900  0.59429300  1
  O  O58  1  0.52568100  0.67842300  0.59429300  1
  O  O59  1  0.67842300  0.15274100  0.09429300  1
  O  O60  1  0.40107800  0.40107800  0.25000000  1
  O  O61  1  0.00000000  0.40107800  0.75000000  1
  O  O62  1  0.40107800  0.00000000  0.75000000  1
  O  O63  1  0.59892200  0.00000000  0.25000000  1
  O  O64  1  0.00000000  0.59892200  0.25000000  1
  O  O65  1  0.59892200  0.59892200  0.75000000  1
  O  O66  1  0.17877900  0.00000000  0.85507800  1
  O  O67  1  0.00000000  0.17877900  0.85507800  1
  O  O68  1  0.82122100  0.82122100  0.85507800  1
  O  O69  1  0.17877900  0.17877900  0.35507800  1
  O  O70  1  0.82122100  0.82122100  0.64492200  1
  O  O71  1  0.82122100  0.00000000  0.35507800  1
  O  O72  1  0.17877900  0.17877900  0.14492200  1
  O  O73  1  0.00000000  0.17877900  0.64492200  1
  O  O74  1  0.17877900  0.00000000  0.64492200  1
  O  O75  1  0.82122100  0.00000000  0.14492200  1
  O  O76  1  0.00000000  0.82122100  0.14492200  1
  O  O77  1  0.00000000  0.82122100  0.35507800  1
