# generated using pymatgen
data_U2Ni12As7
_symmetry_space_group_name_H-M   'P 1'
_cell_length_a   9.37988415
_cell_length_b   9.37988415
_cell_length_c   3.80553500
_cell_angle_alpha   90.00000000
_cell_angle_beta   90.00000000
_cell_angle_gamma   120.00000105
_symmetry_Int_Tables_number   1
_chemical_formula_structural   U2Ni12As7
_chemical_formula_sum   'U2 Ni12 As7'
_cell_volume   289.96214013
_cell_formula_units_Z   1
loop_
 _symmetry_equiv_pos_site_id
 _symmetry_equiv_pos_as_xyz
  1  'x, y, z'
loop_
 _atom_site_type_symbol
 _atom_site_label
 _atom_site_symmetry_multiplicity
 _atom_site_fract_x
 _atom_site_fract_y
 _atom_site_fract_z
 _atom_site_occupancy
  U  U0  1  0.33333300  0.66666700  0.00000000  1
  U  U1  1  0.66666700  0.33333300  0.50000000  1
  Ni  Ni2  1  0.42570800  0.38390700  0.00000000  1
  Ni  Ni3  1  0.61609300  0.04180100  0.00000000  1
  Ni  Ni4  1  0.95819900  0.57429200  0.00000000  1
  Ni  Ni5  1  0.38891500  0.94738100  0.50000000  1
  Ni  Ni6  1  0.05261900  0.44153300  0.50000000  1
  Ni  Ni7  1  0.55846700  0.61108500  0.50000000  1
  Ni  Ni8  1  0.11601500  0.90288800  0.00000000  1
  Ni  Ni9  1  0.09711200  0.21312700  0.00000000  1
  Ni  Ni10  1  0.78687300  0.88398500  0.00000000  1
  Ni  Ni11  1  0.28133700  0.15304000  0.50000000  1
  Ni  Ni12  1  0.84696000  0.12829700  0.50000000  1
  Ni  Ni13  1  0.87170300  0.71866300  0.50000000  1
  As  As14  1  0.00000000  0.00000000  0.50000000  1
  As  As15  1  0.28037000  0.40311300  0.50000000  1
  As  As16  1  0.59688700  0.87725700  0.50000000  1
  As  As17  1  0.12274300  0.71963000  0.50000000  1
  As  As18  1  0.40831300  0.11388900  0.00000000  1
  As  As19  1  0.88611100  0.29442400  0.00000000  1
  As  As20  1  0.70557600  0.59168700  0.00000000  1
