# generated using pymatgen
data_Ir2S3
_symmetry_space_group_name_H-M   'P 1'
_cell_length_a   6.34019515
_cell_length_b   6.34019515
_cell_length_c   6.34019545
_cell_angle_alpha   56.76615704
_cell_angle_beta   56.76615704
_cell_angle_gamma   56.76615610
_symmetry_Int_Tables_number   1
_chemical_formula_structural   Ir2S3
_chemical_formula_sum   'Ir4 S6'
_cell_volume   166.76262437
_cell_formula_units_Z   2
loop_
 _symmetry_equiv_pos_site_id
 _symmetry_equiv_pos_as_xyz
  1  'x, y, z'
loop_
 _atom_site_type_symbol
 _atom_site_label
 _atom_site_symmetry_multiplicity
 _atom_site_fract_x
 _atom_site_fract_y
 _atom_site_fract_z
 _atom_site_occupancy
  Ir  Ir0  1  0.85170200  0.85170200  0.85170200  1
  Ir  Ir1  1  0.64829800  0.64829800  0.64829800  1
  Ir  Ir2  1  0.35170200  0.35170200  0.35170200  1
  Ir  Ir3  1  0.14829800  0.14829800  0.14829800  1
  S  S4  1  0.54649900  0.95350100  0.25000000  1
  S  S5  1  0.95350100  0.25000000  0.54649900  1
  S  S6  1  0.25000000  0.54649900  0.95350100  1
  S  S7  1  0.75000000  0.45350100  0.04649900  1
  S  S8  1  0.04649900  0.75000000  0.45350100  1
  S  S9  1  0.45350100  0.04649900  0.75000000  1
