# generated using pymatgen
data_Li11V8(PO4)12
_symmetry_space_group_name_H-M   'P 1'
_cell_length_a   8.72008000
_cell_length_b   8.78387931
_cell_length_c   12.25535470
_cell_angle_alpha   90.18092830
_cell_angle_beta   90.15872198
_cell_angle_gamma   90.30482648
_symmetry_Int_Tables_number   1
_chemical_formula_structural   Li11V8(PO4)12
_chemical_formula_sum   'Li11 V8 P12 O48'
_cell_volume   938.69113479
_cell_formula_units_Z   1
loop_
 _symmetry_equiv_pos_site_id
 _symmetry_equiv_pos_as_xyz
  1  'x, y, z'
loop_
 _atom_site_type_symbol
 _atom_site_label
 _atom_site_symmetry_multiplicity
 _atom_site_fract_x
 _atom_site_fract_y
 _atom_site_fract_z
 _atom_site_occupancy
  Li  Li0  1  0.21802800  0.77763200  0.18189500  1
  Li  Li1  1  0.77423200  0.27598800  0.18053200  1
  Li  Li2  1  0.05580700  0.41820200  0.28960100  1
  Li  Li3  1  0.31390400  0.26679300  0.31749400  1
  Li  Li4  1  0.71532700  0.77294500  0.31728700  1
  Li  Li5  1  0.27324000  0.22827700  0.68158900  1
  Li  Li6  1  0.68514600  0.73217300  0.68493000  1
  Li  Li7  1  0.94798700  0.58628500  0.71295900  1
  Li  Li8  1  0.55394800  0.08239800  0.78547100  1
  Li  Li9  1  0.22721400  0.72934500  0.81909300  1
  Li  Li10  1  0.81364700  0.23309700  0.81560300  1
  V  V11  1  0.26008100  0.46179200  0.11259600  1
  V  V12  1  0.74642800  0.95805200  0.11418000  1
  V  V13  1  0.74673700  0.46188000  0.38751900  1
  V  V14  1  0.24443100  0.96127600  0.38511500  1
  V  V15  1  0.25509500  0.54015900  0.61192700  1
  V  V16  1  0.75988400  0.03910200  0.60961300  1
  V  V17  1  0.24533700  0.04096000  0.88820100  1
  V  V18  1  0.74256500  0.53911700  0.88889600  1
  P  P19  1  0.54438400  0.24667800  0.99863100  1
  P  P20  1  0.45953900  0.75041500  0.00023300  1
  P  P21  1  0.10059100  0.10565600  0.14781300  1
  P  P22  1  0.89778300  0.60380000  0.14558000  1
  P  P23  1  0.39263900  0.60531000  0.35352100  1
  P  P24  1  0.60923300  0.09945400  0.35135800  1
  P  P25  1  0.04642000  0.25323400  0.49789700  1
  P  P26  1  0.95606700  0.75121600  0.50178000  1
  P  P27  1  0.60679400  0.39279700  0.64697600  1
  P  P28  1  0.39070900  0.90247500  0.64530700  1
  P  P29  1  0.10949800  0.40308500  0.85429400  1
  P  P30  1  0.89297000  0.89437300  0.85520300  1
  O  O31  1  0.15341300  0.07132700  0.03157400  1
  O  O32  1  0.84497400  0.56112000  0.03184500  1
  O  O33  1  0.56578500  0.86035200  0.06812500  1
  O  O34  1  0.44665100  0.35333800  0.06744000  1
  O  O35  1  0.35961200  0.66742200  0.08376000  1
  O  O36  1  0.64609300  0.15484600  0.08039300  1
  O  O37  1  0.07554400  0.60190000  0.15851200  1
  O  O38  1  0.92073100  0.09972500  0.15397300  1
  O  O39  1  0.15152000  0.26859800  0.18379700  1
  O  O40  1  0.83797400  0.76499000  0.17886600  1
  O  O41  1  0.16778000  0.98510200  0.22536800  1
  O  O42  1  0.84060700  0.48030600  0.22838600  1
  O  O43  1  0.67838300  0.98092500  0.26815100  1
  O  O44  1  0.31361000  0.48095100  0.27825900  1
  O  O45  1  0.33112300  0.76291500  0.32098600  1
  O  O46  1  0.66104000  0.26296200  0.31978000  1
  O  O47  1  0.43310800  0.09077100  0.34084700  1
  O  O48  1  0.56807600  0.60075500  0.33726400  1
  O  O49  1  0.15690100  0.17317900  0.41822600  1
  O  O50  1  0.85103800  0.66324700  0.41967200  1
  O  O51  1  0.05304300  0.86299500  0.43663800  1
  O  O52  1  0.95096800  0.36195600  0.42584700  1
  O  O53  1  0.66393300  0.05510200  0.46455200  1
  O  O54  1  0.35113700  0.56420000  0.47103900  1
  O  O55  1  0.65364400  0.42713500  0.53054200  1
  O  O56  1  0.34170800  0.94441800  0.53200600  1
  O  O57  1  0.04942600  0.64156600  0.57466300  1
  O  O58  1  0.95058500  0.14332100  0.56735300  1
  O  O59  1  0.14804100  0.34343500  0.58106200  1
  O  O60  1  0.84574600  0.83172100  0.58372100  1
  O  O61  1  0.43173000  0.39520600  0.66300100  1
  O  O62  1  0.56866000  0.91387700  0.66226500  1
  O  O63  1  0.34099000  0.74011500  0.67924100  1
  O  O64  1  0.66428300  0.23131000  0.68353100  1
  O  O65  1  0.32954300  0.02342200  0.72992500  1
  O  O66  1  0.68647900  0.51517300  0.72214000  1
  O  O67  1  0.16909600  0.52534600  0.77164600  1
  O  O68  1  0.81460100  0.01698600  0.78237200  1
  O  O69  1  0.15868900  0.24107900  0.82137100  1
  O  O70  1  0.83593300  0.73402000  0.81711800  1
  O  O71  1  0.06883600  0.89715300  0.84170000  1
  O  O72  1  0.93139200  0.41347000  0.83969500  1
  O  O73  1  0.35406700  0.84071100  0.92293000  1
  O  O74  1  0.65670200  0.32933000  0.92101800  1
  O  O75  1  0.45037000  0.13931300  0.92385000  1
  O  O76  1  0.55314400  0.64113800  0.92969700  1
  O  O77  1  0.16147700  0.44537000  0.96845500  1
  O  O78  1  0.84644500  0.92503000  0.97450400  1
