# generated using pymatgen
data_K3SbSe4
_symmetry_space_group_name_H-M   'P 1'
_cell_length_a   8.18526331
_cell_length_b   8.18526331
_cell_length_c   8.18526330
_cell_angle_alpha   92.00302022
_cell_angle_beta   92.00302022
_cell_angle_gamma   92.00302963
_symmetry_Int_Tables_number   1
_chemical_formula_structural   K3SbSe4
_chemical_formula_sum   'K6 Sb2 Se8'
_cell_volume   547.37133306
_cell_formula_units_Z   2
loop_
 _symmetry_equiv_pos_site_id
 _symmetry_equiv_pos_as_xyz
  1  'x, y, z'
loop_
 _atom_site_type_symbol
 _atom_site_label
 _atom_site_symmetry_multiplicity
 _atom_site_fract_x
 _atom_site_fract_y
 _atom_site_fract_z
 _atom_site_occupancy
  K  K0  1  0.47439800  0.99929100  0.54494000  1
  K  K1  1  0.54494000  0.47439800  0.99929100  1
  K  K2  1  0.99929100  0.54494000  0.47439800  1
  K  K3  1  0.04494000  0.49929100  0.97439800  1
  K  K4  1  0.97439800  0.04494000  0.49929100  1
  K  K5  1  0.49929100  0.97439800  0.04494000  1
  Sb  Sb6  1  0.99830600  0.99830600  0.99830600  1
  Sb  Sb7  1  0.49830600  0.49830600  0.49830600  1
  Se  Se8  1  0.17072100  0.84089400  0.80078600  1
  Se  Se9  1  0.68216400  0.68216400  0.68216400  1
  Se  Se10  1  0.30078600  0.34089400  0.67072100  1
  Se  Se11  1  0.80078600  0.17072100  0.84089400  1
  Se  Se12  1  0.84089400  0.80078600  0.17072100  1
  Se  Se13  1  0.34089400  0.67072100  0.30078600  1
  Se  Se14  1  0.67072100  0.30078600  0.34089400  1
  Se  Se15  1  0.18216400  0.18216400  0.18216400  1
