# generated using pymatgen
data_Ti6Al16Ni7
_symmetry_space_group_name_H-M   'P 1'
_cell_length_a   8.34560799
_cell_length_b   8.34560799
_cell_length_c   8.34560799
_cell_angle_alpha   60.00000000
_cell_angle_beta   60.00000000
_cell_angle_gamma   60.00000000
_symmetry_Int_Tables_number   1
_chemical_formula_structural   Ti6Al16Ni7
_chemical_formula_sum   'Ti6 Al16 Ni7'
_cell_volume   411.01620504
_cell_formula_units_Z   1
loop_
 _symmetry_equiv_pos_site_id
 _symmetry_equiv_pos_as_xyz
  1  'x, y, z'
loop_
 _atom_site_type_symbol
 _atom_site_label
 _atom_site_symmetry_multiplicity
 _atom_site_fract_x
 _atom_site_fract_y
 _atom_site_fract_z
 _atom_site_occupancy
  Ti  Ti0  1  0.18239400  0.81760600  0.81760600  1
  Ti  Ti1  1  0.81760600  0.18239400  0.18239400  1
  Ti  Ti2  1  0.81760600  0.18239400  0.81760600  1
  Ti  Ti3  1  0.81760600  0.81760600  0.18239400  1
  Ti  Ti4  1  0.18239400  0.81760600  0.18239400  1
  Ti  Ti5  1  0.18239400  0.18239400  0.81760600  1
  Al  Al6  1  0.83792600  0.83792600  0.83792600  1
  Al  Al7  1  0.83792600  0.83792600  0.48622100  1
  Al  Al8  1  0.48622100  0.83792600  0.83792600  1
  Al  Al9  1  0.83792600  0.48622100  0.83792600  1
  Al  Al10  1  0.16207400  0.16207400  0.16207400  1
  Al  Al11  1  0.16207400  0.16207400  0.51377900  1
  Al  Al12  1  0.16207400  0.51377900  0.16207400  1
  Al  Al13  1  0.51377900  0.16207400  0.16207400  1
  Al  Al14  1  0.61906500  0.61906500  0.61906500  1
  Al  Al15  1  0.61906500  0.61906500  0.14280600  1
  Al  Al16  1  0.14280600  0.61906500  0.61906500  1
  Al  Al17  1  0.61906500  0.14280600  0.61906500  1
  Al  Al18  1  0.38093500  0.38093500  0.38093500  1
  Al  Al19  1  0.38093500  0.38093500  0.85719400  1
  Al  Al20  1  0.38093500  0.85719400  0.38093500  1
  Al  Al21  1  0.85719400  0.38093500  0.38093500  1
  Ni  Ni22  1  0.00000000  0.50000000  0.50000000  1
  Ni  Ni23  1  0.50000000  0.00000000  0.00000000  1
  Ni  Ni24  1  0.50000000  0.00000000  0.50000000  1
  Ni  Ni25  1  0.50000000  0.50000000  0.00000000  1
  Ni  Ni26  1  0.00000000  0.50000000  0.00000000  1
  Ni  Ni27  1  0.00000000  0.00000000  0.50000000  1
  Ni  Ni28  1  0.50000000  0.50000000  0.50000000  1
