# generated using pymatgen
data_KSc(BH4)4
_symmetry_space_group_name_H-M   'P 1'
_cell_length_a   8.30527300
_cell_length_b   9.27154100
_cell_length_c   12.35313300
_cell_angle_alpha   90.00000000
_cell_angle_beta   90.00000000
_cell_angle_gamma   90.00000000
_symmetry_Int_Tables_number   1
_chemical_formula_structural   KSc(BH4)4
_chemical_formula_sum   'K4 Sc4 B16 H64'
_cell_volume   951.22433672
_cell_formula_units_Z   4
loop_
 _symmetry_equiv_pos_site_id
 _symmetry_equiv_pos_as_xyz
  1  'x, y, z'
loop_
 _atom_site_type_symbol
 _atom_site_label
 _atom_site_symmetry_multiplicity
 _atom_site_fract_x
 _atom_site_fract_y
 _atom_site_fract_z
 _atom_site_occupancy
  K  K0  1  0.25000000  0.63703600  0.11074500  1
  K  K1  1  0.75000000  0.13703600  0.38925500  1
  K  K2  1  0.25000000  0.86296400  0.61074500  1
  K  K3  1  0.75000000  0.36296400  0.88925500  1
  Sc  Sc4  1  0.25000000  0.17154400  0.05514300  1
  Sc  Sc5  1  0.75000000  0.67154400  0.44485700  1
  Sc  Sc6  1  0.25000000  0.32845600  0.55514300  1
  Sc  Sc7  1  0.75000000  0.82845600  0.94485700  1
  B  B8  1  0.25000000  0.98169100  0.17752100  1
  B  B9  1  0.75000000  0.48169100  0.32247900  1
  B  B10  1  0.25000000  0.51830900  0.67752100  1
  B  B11  1  0.75000000  0.01830900  0.82247900  1
  B  B12  1  0.25000000  0.42002600  0.38207500  1
  B  B13  1  0.75000000  0.92002600  0.11792500  1
  B  B14  1  0.25000000  0.07997400  0.88207500  1
  B  B15  1  0.75000000  0.57997400  0.61792500  1
  B  B16  1  0.02129500  0.31716000  0.07888900  1
  B  B17  1  0.97870500  0.81716000  0.42111100  1
  B  B18  1  0.47870500  0.18284000  0.57888900  1
  B  B19  1  0.52129500  0.68284000  0.92111100  1
  B  B20  1  0.97870500  0.68284000  0.92111100  1
  B  B21  1  0.02129500  0.18284000  0.57888900  1
  B  B22  1  0.52129500  0.81716000  0.42111100  1
  B  B23  1  0.47870500  0.31716000  0.07888900  1
  H  H24  1  0.97964900  0.19383900  0.05352700  1
  H  H25  1  0.02035100  0.69383900  0.44647300  1
  H  H26  1  0.52035100  0.30616100  0.55352700  1
  H  H27  1  0.47964900  0.80616100  0.94647300  1
  H  H28  1  0.02035100  0.80616100  0.94647300  1
  H  H29  1  0.97964900  0.30616100  0.55352700  1
  H  H30  1  0.47964900  0.69383900  0.44647300  1
  H  H31  1  0.52035100  0.19383900  0.05352700  1
  H  H32  1  0.10021500  0.30778200  0.16332200  1
  H  H33  1  0.89978500  0.80778200  0.33667800  1
  H  H34  1  0.39978500  0.19221800  0.66332200  1
  H  H35  1  0.60021500  0.69221800  0.83667800  1
  H  H36  1  0.89978500  0.69221800  0.83667800  1
  H  H37  1  0.10021500  0.19221800  0.66332200  1
  H  H38  1  0.60021500  0.80778200  0.33667800  1
  H  H39  1  0.39978500  0.30778200  0.16332200  1
  H  H40  1  0.25000000  0.87917100  0.23735900  1
  H  H41  1  0.75000000  0.37917100  0.26264100  1
  H  H42  1  0.25000000  0.62082900  0.73735900  1
  H  H43  1  0.75000000  0.12082900  0.76264100  1
  H  H44  1  0.37004700  0.98321700  0.11792100  1
  H  H45  1  0.62995300  0.48321700  0.38207900  1
  H  H46  1  0.12995300  0.51678300  0.61792100  1
  H  H47  1  0.87004700  0.01678300  0.88207900  1
  H  H48  1  0.62995300  0.01678300  0.88207900  1
  H  H49  1  0.37004700  0.51678300  0.61792100  1
  H  H50  1  0.87004700  0.48321700  0.38207900  1
  H  H51  1  0.12995300  0.98321700  0.11792100  1
  H  H52  1  0.25000000  0.09637000  0.22831900  1
  H  H53  1  0.75000000  0.59637000  0.27168100  1
  H  H54  1  0.25000000  0.40363000  0.72831900  1
  H  H55  1  0.75000000  0.90363000  0.77168100  1
  H  H56  1  0.36942200  0.45580100  0.43571000  1
  H  H57  1  0.63057800  0.95580100  0.06429000  1
  H  H58  1  0.13057800  0.04419900  0.93571000  1
  H  H59  1  0.86942200  0.54419900  0.56429000  1
  H  H60  1  0.63057800  0.54419900  0.56429000  1
  H  H61  1  0.36942200  0.04419900  0.93571000  1
  H  H62  1  0.86942200  0.95580100  0.06429000  1
  H  H63  1  0.13057800  0.45580100  0.43571000  1
  H  H64  1  0.90768000  0.39685900  0.09102200  1
  H  H65  1  0.09232000  0.89685900  0.40897800  1
  H  H66  1  0.59232000  0.10314100  0.59102200  1
  H  H67  1  0.40768000  0.60314100  0.90897800  1
  H  H68  1  0.09232000  0.60314100  0.90897800  1
  H  H69  1  0.90768000  0.10314100  0.59102200  1
  H  H70  1  0.40768000  0.89685900  0.40897800  1
  H  H71  1  0.59232000  0.39685900  0.09102200  1
  H  H72  1  0.25000000  0.28633900  0.37872200  1
  H  H73  1  0.75000000  0.78633900  0.12127800  1
  H  H74  1  0.25000000  0.21366100  0.87872200  1
  H  H75  1  0.75000000  0.71366100  0.62127800  1
  H  H76  1  0.25000000  0.47425100  0.29399100  1
  H  H77  1  0.75000000  0.97425100  0.20600900  1
  H  H78  1  0.25000000  0.02574900  0.79399100  1
  H  H79  1  0.75000000  0.52574900  0.70600900  1
  H  H80  1  0.11198100  0.36134400  0.00657400  1
  H  H81  1  0.88801900  0.86134400  0.49342600  1
  H  H82  1  0.38801900  0.13865600  0.50657400  1
  H  H83  1  0.61198100  0.63865600  0.99342600  1
  H  H84  1  0.88801900  0.63865600  0.99342600  1
  H  H85  1  0.11198100  0.13865600  0.50657400  1
  H  H86  1  0.61198100  0.86134400  0.49342600  1
  H  H87  1  0.38801900  0.36134400  0.00657400  1
