# generated using pymatgen
data_Cs2VAgS4
_symmetry_space_group_name_H-M   'P 1'
_cell_length_a   14.35757780
_cell_length_b   12.76447817
_cell_length_c   7.77633603
_cell_angle_alpha   85.01131182
_cell_angle_beta   62.33450548
_cell_angle_gamma   32.65418270
_symmetry_Int_Tables_number   1
_chemical_formula_structural   Cs2VAgS4
_chemical_formula_sum   'Cs4 V2 Ag2 S8'
_cell_volume   525.52253124
_cell_formula_units_Z   2
loop_
 _symmetry_equiv_pos_site_id
 _symmetry_equiv_pos_as_xyz
  1  'x, y, z'
loop_
 _atom_site_type_symbol
 _atom_site_label
 _atom_site_symmetry_multiplicity
 _atom_site_fract_x
 _atom_site_fract_y
 _atom_site_fract_z
 _atom_site_occupancy
  Cs  Cs0  1  0.67809600  0.67809600  0.32190400  1
  Cs  Cs1  1  0.32190400  0.32190400  0.67809600  1
  Cs  Cs2  1  0.92809600  0.92809600  0.57190400  1
  Cs  Cs3  1  0.57190400  0.57190400  0.92809600  1
  V  V4  1  0.75000000  0.75000000  0.75000000  1
  V  V5  1  0.50000000  0.50000000  0.50000000  1
  Ag  Ag6  1  0.00000000  0.00000000  0.00000000  1
  Ag  Ag7  1  0.25000000  0.25000000  0.25000000  1
  S  S8  1  0.40475500  0.99163100  0.91395800  1
  S  S9  1  0.68965700  0.91395800  0.99163100  1
  S  S10  1  0.91395800  0.68965700  0.40475500  1
  S  S11  1  0.99163100  0.40475500  0.68965700  1
  S  S12  1  0.25836900  0.84524500  0.56034300  1
  S  S13  1  0.56034300  0.33604200  0.25836900  1
  S  S14  1  0.33604200  0.56034300  0.84524500  1
  S  S15  1  0.84524500  0.25836900  0.33604200  1
