# generated using pymatgen
data_SrSn3Sb4
_symmetry_space_group_name_H-M   'P 1'
_cell_length_a   4.44551700
_cell_length_b   10.17618000
_cell_length_c   23.28424200
_cell_angle_alpha   90.00000000
_cell_angle_beta   90.00000000
_cell_angle_gamma   90.00000000
_symmetry_Int_Tables_number   1
_chemical_formula_structural   SrSn3Sb4
_chemical_formula_sum   'Sr4 Sn12 Sb16'
_cell_volume   1053.34141520
_cell_formula_units_Z   4
loop_
 _symmetry_equiv_pos_site_id
 _symmetry_equiv_pos_as_xyz
  1  'x, y, z'
loop_
 _atom_site_type_symbol
 _atom_site_label
 _atom_site_symmetry_multiplicity
 _atom_site_fract_x
 _atom_site_fract_y
 _atom_site_fract_z
 _atom_site_occupancy
  Sr  Sr0  1  0.25000000  0.93801700  0.87031600  1
  Sr  Sr1  1  0.75000000  0.56198300  0.37031600  1
  Sr  Sr2  1  0.25000000  0.43801700  0.62968400  1
  Sr  Sr3  1  0.75000000  0.06198300  0.12968400  1
  Sn  Sn4  1  0.25000000  0.72311900  0.74882800  1
  Sn  Sn5  1  0.75000000  0.77688100  0.24882800  1
  Sn  Sn6  1  0.25000000  0.22311900  0.75117200  1
  Sn  Sn7  1  0.75000000  0.27688100  0.25117200  1
  Sn  Sn8  1  0.25000000  0.64450400  0.98948100  1
  Sn  Sn9  1  0.75000000  0.85549600  0.48948100  1
  Sn  Sn10  1  0.25000000  0.14450400  0.51051900  1
  Sn  Sn11  1  0.75000000  0.35549600  0.01051900  1
  Sn  Sn12  1  0.25000000  0.54396900  0.14953700  1
  Sn  Sn13  1  0.75000000  0.95603100  0.64953700  1
  Sn  Sn14  1  0.25000000  0.04396900  0.35046300  1
  Sn  Sn15  1  0.75000000  0.45603100  0.85046300  1
  Sb  Sb16  1  0.25000000  0.42754700  0.47119300  1
  Sb  Sb17  1  0.75000000  0.07245300  0.97119300  1
  Sb  Sb18  1  0.25000000  0.92754700  0.02880700  1
  Sb  Sb19  1  0.75000000  0.57245300  0.52880700  1
  Sb  Sb20  1  0.25000000  0.96763600  0.23183000  1
  Sb  Sb21  1  0.75000000  0.53236400  0.73183000  1
  Sb  Sb22  1  0.25000000  0.46763600  0.26817000  1
  Sb  Sb23  1  0.75000000  0.03236400  0.76817000  1
  Sb  Sb24  1  0.25000000  0.78628300  0.62302900  1
  Sb  Sb25  1  0.75000000  0.71371700  0.12302900  1
  Sb  Sb26  1  0.25000000  0.28628300  0.87697100  1
  Sb  Sb27  1  0.75000000  0.21371700  0.37697100  1
  Sb  Sb28  1  0.25000000  0.79733200  0.40814300  1
  Sb  Sb29  1  0.75000000  0.70266800  0.90814300  1
  Sb  Sb30  1  0.25000000  0.29733200  0.09185700  1
  Sb  Sb31  1  0.75000000  0.20266800  0.59185700  1
