# generated using pymatgen
data_Mg3TcH7
_symmetry_space_group_name_H-M   'P 1'
_cell_length_a   4.84094581
_cell_length_b   4.84094581
_cell_length_c   10.53720600
_cell_angle_alpha   90.00000000
_cell_angle_beta   90.00000000
_cell_angle_gamma   119.99999746
_symmetry_Int_Tables_number   1
_chemical_formula_structural   Mg3TcH7
_chemical_formula_sum   'Mg6 Tc2 H14'
_cell_volume   213.85359547
_cell_formula_units_Z   2
loop_
 _symmetry_equiv_pos_site_id
 _symmetry_equiv_pos_as_xyz
  1  'x, y, z'
loop_
 _atom_site_type_symbol
 _atom_site_label
 _atom_site_symmetry_multiplicity
 _atom_site_fract_x
 _atom_site_fract_y
 _atom_site_fract_z
 _atom_site_occupancy
  Mg  Mg0  1  0.00000000  0.00000000  0.25000000  1
  Mg  Mg1  1  0.00000000  0.00000000  0.75000000  1
  Mg  Mg2  1  0.33333300  0.66666700  0.43258000  1
  Mg  Mg3  1  0.66666700  0.33333300  0.56742000  1
  Mg  Mg4  1  0.66666700  0.33333300  0.93258000  1
  Mg  Mg5  1  0.33333300  0.66666700  0.06742000  1
  Tc  Tc6  1  0.00000000  0.00000000  0.50000000  1
  Tc  Tc7  1  0.00000000  0.00000000  0.00000000  1
  H  H8  1  0.33333300  0.66666700  0.25000000  1
  H  H9  1  0.66666700  0.33333300  0.75000000  1
  H  H10  1  0.16860300  0.83139700  0.90190000  1
  H  H11  1  0.16860300  0.33720600  0.90190000  1
  H  H12  1  0.66279400  0.83139700  0.90190000  1
  H  H13  1  0.83139700  0.16860300  0.09810000  1
  H  H14  1  0.83139700  0.66279400  0.09810000  1
  H  H15  1  0.33720600  0.16860300  0.09810000  1
  H  H16  1  0.83139700  0.16860300  0.40190000  1
  H  H17  1  0.83139700  0.66279400  0.40190000  1
  H  H18  1  0.33720600  0.16860300  0.40190000  1
  H  H19  1  0.16860300  0.83139700  0.59810000  1
  H  H20  1  0.16860300  0.33720600  0.59810000  1
  H  H21  1  0.66279400  0.83139700  0.59810000  1
