# generated using pymatgen
data_Dy2Co3Ge5
_symmetry_space_group_name_H-M   'P 1'
_cell_length_a   8.08110780
_cell_length_b   8.08110780
_cell_length_c   5.71950534
_cell_angle_alpha   70.51086773
_cell_angle_beta   70.51086773
_cell_angle_gamma   93.78518168
_symmetry_Int_Tables_number   1
_chemical_formula_structural   Dy2Co3Ge5
_chemical_formula_sum   'Dy4 Co6 Ge10'
_cell_volume   325.25913829
_cell_formula_units_Z   2
loop_
 _symmetry_equiv_pos_site_id
 _symmetry_equiv_pos_as_xyz
  1  'x, y, z'
loop_
 _atom_site_type_symbol
 _atom_site_label
 _atom_site_symmetry_multiplicity
 _atom_site_fract_x
 _atom_site_fract_y
 _atom_site_fract_z
 _atom_site_occupancy
  Dy  Dy0  1  0.40817200  0.12775500  0.73291200  1
  Dy  Dy1  1  0.87224500  0.59182800  0.76708800  1
  Dy  Dy2  1  0.12775500  0.40817200  0.23291200  1
  Dy  Dy3  1  0.59182800  0.87224500  0.26708800  1
  Co  Co4  1  0.00295900  0.99704100  0.75000000  1
  Co  Co5  1  0.99704100  0.00295900  0.25000000  1
  Co  Co6  1  0.26224300  0.54344700  0.62025300  1
  Co  Co7  1  0.54344700  0.26224300  0.12025300  1
  Co  Co8  1  0.73775700  0.45655300  0.37974700  1
  Co  Co9  1  0.45655300  0.73775700  0.87974700  1
  Ge  Ge10  1  0.50949400  0.49050600  0.75000000  1
  Ge  Ge11  1  0.49050600  0.50949400  0.25000000  1
  Ge  Ge12  1  0.77350600  0.22649400  0.75000000  1
  Ge  Ge13  1  0.22649400  0.77350600  0.25000000  1
  Ge  Ge14  1  0.07887400  0.26187700  0.82691500  1
  Ge  Ge15  1  0.73812300  0.92112600  0.67308500  1
  Ge  Ge16  1  0.78678500  0.21321500  0.25000000  1
  Ge  Ge17  1  0.21321500  0.78678500  0.75000000  1
  Ge  Ge18  1  0.26187700  0.07887400  0.32691500  1
  Ge  Ge19  1  0.92112600  0.73812300  0.17308500  1
