# generated using pymatgen
data_Ce3Zn11
_symmetry_space_group_name_H-M   'P 1'
_cell_length_a   4.46534900
_cell_length_b   8.27433446
_cell_length_c   8.27433446
_cell_angle_alpha   106.81488337
_cell_angle_beta   105.65422542
_cell_angle_gamma   105.65422542
_symmetry_Int_Tables_number   1
_chemical_formula_structural   Ce3Zn11
_chemical_formula_sum   'Ce3 Zn11'
_cell_volume   260.95076299
_cell_formula_units_Z   1
loop_
 _symmetry_equiv_pos_site_id
 _symmetry_equiv_pos_as_xyz
  1  'x, y, z'
loop_
 _atom_site_type_symbol
 _atom_site_label
 _atom_site_symmetry_multiplicity
 _atom_site_fract_x
 _atom_site_fract_y
 _atom_site_fract_z
 _atom_site_occupancy
  Ce  Ce0  1  0.00000000  0.00000000  0.00000000  1
  Ce  Ce1  1  0.00000100  0.70460500  0.29539500  1
  Ce  Ce2  1  0.00000100  0.29539500  0.70460500  1
  Zn  Zn3  1  0.35879500  0.70264800  0.01494100  1
  Zn  Zn4  1  0.28260500  0.42270300  0.14250500  1
  Zn  Zn5  1  0.64120700  0.98506000  0.29735200  1
  Zn  Zn6  1  0.81734600  0.31734600  0.31734600  1
  Zn  Zn7  1  0.28260500  0.14250500  0.42270300  1
  Zn  Zn8  1  0.50000000  0.50000000  0.50000000  1
  Zn  Zn9  1  0.71739600  0.85749500  0.57729700  1
  Zn  Zn10  1  0.18265500  0.68265400  0.68265400  1
  Zn  Zn11  1  0.35879500  0.01494100  0.70264800  1
  Zn  Zn12  1  0.71739600  0.57729700  0.85749500  1
  Zn  Zn13  1  0.64120700  0.29735200  0.98506000  1
