# generated using pymatgen
data_NpSO
_symmetry_space_group_name_H-M   'P 1'
_cell_length_a   3.79542600
_cell_length_b   3.79542600
_cell_length_c   6.69705100
_cell_angle_alpha   90.00000000
_cell_angle_beta   90.00000000
_cell_angle_gamma   90.00000000
_symmetry_Int_Tables_number   1
_chemical_formula_structural   NpSO
_chemical_formula_sum   'Np2 S2 O2'
_cell_volume   96.47275099
_cell_formula_units_Z   2
loop_
 _symmetry_equiv_pos_site_id
 _symmetry_equiv_pos_as_xyz
  1  'x, y, z'
loop_
 _atom_site_type_symbol
 _atom_site_label
 _atom_site_symmetry_multiplicity
 _atom_site_fract_x
 _atom_site_fract_y
 _atom_site_fract_z
 _atom_site_occupancy
  Np  Np0  1  0.50000000  0.00000000  0.80348900  1
  Np  Np1  1  0.00000000  0.50000000  0.19651100  1
  S  S2  1  0.00000000  0.50000000  0.63154500  1
  S  S3  1  0.50000000  0.00000000  0.36845500  1
  O  O4  1  0.00000000  0.00000000  0.00000000  1
  O  O5  1  0.50000000  0.50000000  0.00000000  1
