# generated using pymatgen
data_ZrZn3
_symmetry_space_group_name_H-M   'P 1'
_cell_length_a   5.89016790
_cell_length_b   5.89016790
_cell_length_c   4.38542500
_cell_angle_alpha   90.00000000
_cell_angle_beta   90.00000000
_cell_angle_gamma   119.99999883
_symmetry_Int_Tables_number   1
_chemical_formula_structural   ZrZn3
_chemical_formula_sum   'Zr2 Zn6'
_cell_volume   131.76427398
_cell_formula_units_Z   2
loop_
 _symmetry_equiv_pos_site_id
 _symmetry_equiv_pos_as_xyz
  1  'x, y, z'
loop_
 _atom_site_type_symbol
 _atom_site_label
 _atom_site_symmetry_multiplicity
 _atom_site_fract_x
 _atom_site_fract_y
 _atom_site_fract_z
 _atom_site_occupancy
  Zr  Zr0  1  0.33333300  0.66666700  0.75000000  1
  Zr  Zr1  1  0.66666700  0.33333300  0.25000000  1
  Zn  Zn2  1  0.15835300  0.31670700  0.25000000  1
  Zn  Zn3  1  0.68329300  0.84164700  0.25000000  1
  Zn  Zn4  1  0.15835300  0.84164700  0.25000000  1
  Zn  Zn5  1  0.84164700  0.68329300  0.75000000  1
  Zn  Zn6  1  0.31670700  0.15835300  0.75000000  1
  Zn  Zn7  1  0.84164700  0.15835300  0.75000000  1
