# generated using pymatgen
data_CsTi6O12
_symmetry_space_group_name_H-M   'P 1'
_cell_length_a   8.61064871
_cell_length_b   8.61064871
_cell_length_c   8.61064871
_cell_angle_alpha   105.67626085
_cell_angle_beta   105.67626085
_cell_angle_gamma   117.36109872
_symmetry_Int_Tables_number   1
_chemical_formula_structural   CsTi6O12
_chemical_formula_sum   'Cs2 Ti12 O24'
_cell_volume   484.37806239
_cell_formula_units_Z   2
loop_
 _symmetry_equiv_pos_site_id
 _symmetry_equiv_pos_as_xyz
  1  'x, y, z'
loop_
 _atom_site_type_symbol
 _atom_site_label
 _atom_site_symmetry_multiplicity
 _atom_site_fract_x
 _atom_site_fract_y
 _atom_site_fract_z
 _atom_site_occupancy
  Cs  Cs0  1  0.70868100  0.70868100  0.00000000  1
  Cs  Cs1  1  0.29131900  0.29131900  0.00000000  1
  Ti  Ti2  1  0.66649300  0.84837600  0.51486800  1
  Ti  Ti3  1  0.81790800  0.33058500  0.81639500  1
  Ti  Ti4  1  0.48581000  0.99848700  0.81639500  1
  Ti  Ti5  1  0.51419000  0.00151300  0.18360500  1
  Ti  Ti6  1  0.66941500  0.48581000  0.48732300  1
  Ti  Ti7  1  0.33350700  0.15162400  0.48513200  1
  Ti  Ti8  1  0.33058500  0.51419000  0.51267700  1
  Ti  Ti9  1  0.99848700  0.18209200  0.51267700  1
  Ti  Ti10  1  0.15162400  0.66649300  0.81811700  1
  Ti  Ti11  1  0.18209200  0.66941500  0.18360500  1
  Ti  Ti12  1  0.84837600  0.33350700  0.18188300  1
  Ti  Ti13  1  0.00151300  0.81790800  0.48732300  1
  O  O14  1  0.66600900  0.03813100  0.70413900  1
  O  O15  1  0.32448100  0.95644600  0.94867400  1
  O  O16  1  0.65686900  0.29187500  0.94874400  1
  O  O17  1  0.70490000  0.99998900  0.37091300  1
  O  O18  1  0.62907600  0.33398700  0.62908700  1
  O  O19  1  0.29510000  0.00001100  0.62908700  1
  O  O20  1  0.67551900  0.04355400  0.05132600  1
  O  O21  1  0.66601300  0.29510000  0.29508900  1
  O  O22  1  0.33399100  0.96186900  0.29586100  1
  O  O23  1  0.62419300  0.67551900  0.63196500  1
  O  O24  1  0.29187500  0.34313100  0.63500600  1
  O  O25  1  0.95644600  0.00777200  0.63196500  1
  O  O26  1  0.37580700  0.32448100  0.36803500  1
  O  O27  1  0.04355400  0.99222800  0.36803500  1
  O  O28  1  0.70812500  0.65686900  0.36499400  1
  O  O29  1  0.33398700  0.70490000  0.70491100  1
  O  O30  1  0.00001100  0.37092400  0.70491100  1
  O  O31  1  0.99222800  0.62419300  0.94867400  1
  O  O32  1  0.37092400  0.66601300  0.37091300  1
  O  O33  1  0.03813100  0.33399100  0.37212200  1
  O  O34  1  0.96186900  0.66600800  0.62787800  1
  O  O35  1  0.34313100  0.70812500  0.05125600  1
  O  O36  1  0.00777200  0.37580700  0.05132600  1
  O  O37  1  0.99998900  0.62907600  0.29508900  1
