# generated using pymatgen
data_Lu2MgGe2
_symmetry_space_group_name_H-M   'P 1'
_cell_length_a   7.14528100
_cell_length_b   7.14528100
_cell_length_c   4.17127900
_cell_angle_alpha   90.00000000
_cell_angle_beta   90.00000000
_cell_angle_gamma   90.00000000
_symmetry_Int_Tables_number   1
_chemical_formula_structural   Lu2MgGe2
_chemical_formula_sum   'Lu4 Mg2 Ge4'
_cell_volume   212.96481857
_cell_formula_units_Z   2
loop_
 _symmetry_equiv_pos_site_id
 _symmetry_equiv_pos_as_xyz
  1  'x, y, z'
loop_
 _atom_site_type_symbol
 _atom_site_label
 _atom_site_symmetry_multiplicity
 _atom_site_fract_x
 _atom_site_fract_y
 _atom_site_fract_z
 _atom_site_occupancy
  Lu  Lu0  1  0.67689700  0.17689700  0.50000000  1
  Lu  Lu1  1  0.32310300  0.82310300  0.50000000  1
  Lu  Lu2  1  0.17689700  0.32310300  0.50000000  1
  Lu  Lu3  1  0.82310300  0.67689700  0.50000000  1
  Mg  Mg4  1  0.50000000  0.50000000  0.00000000  1
  Mg  Mg5  1  0.00000000  0.00000000  0.00000000  1
  Ge  Ge6  1  0.87496400  0.37496400  0.00000000  1
  Ge  Ge7  1  0.12503600  0.62503600  0.00000000  1
  Ge  Ge8  1  0.37496400  0.12503600  0.00000000  1
  Ge  Ge9  1  0.62503600  0.87496400  0.00000000  1
