# generated using pymatgen
data_Cs2ZrO3
_symmetry_space_group_name_H-M   'P 1'
_cell_length_a   6.95290938
_cell_length_b   6.95290938
_cell_length_c   6.02438200
_cell_angle_alpha   90.00000000
_cell_angle_beta   90.00000000
_cell_angle_gamma   111.42522662
_symmetry_Int_Tables_number   1
_chemical_formula_structural   Cs2ZrO3
_chemical_formula_sum   'Cs4 Zr2 O6'
_cell_volume   271.11052220
_cell_formula_units_Z   2
loop_
 _symmetry_equiv_pos_site_id
 _symmetry_equiv_pos_as_xyz
  1  'x, y, z'
loop_
 _atom_site_type_symbol
 _atom_site_label
 _atom_site_symmetry_multiplicity
 _atom_site_fract_x
 _atom_site_fract_y
 _atom_site_fract_z
 _atom_site_occupancy
  Cs  Cs0  1  0.19132100  0.51700000  0.75000000  1
  Cs  Cs1  1  0.80867900  0.48300000  0.25000000  1
  Cs  Cs2  1  0.48300000  0.80867900  0.25000000  1
  Cs  Cs3  1  0.51700000  0.19132100  0.75000000  1
  Zr  Zr4  1  0.91685200  0.91685200  0.75000000  1
  Zr  Zr5  1  0.08314800  0.08314800  0.25000000  1
  O  O6  1  0.33141300  0.33141300  0.25000000  1
  O  O7  1  0.66858700  0.66858700  0.75000000  1
  O  O8  1  0.88214500  0.11785500  0.50000000  1
  O  O9  1  0.88214500  0.11785500  0.00000000  1
  O  O10  1  0.11785500  0.88214500  0.50000000  1
  O  O11  1  0.11785500  0.88214500  0.00000000  1
