# generated using pymatgen
data_MgH8(ClO6)2
_symmetry_space_group_name_H-M   'P 1'
_cell_length_a   6.91700767
_cell_length_b   6.91700767
_cell_length_c   6.00131726
_cell_angle_alpha   71.94743210
_cell_angle_beta   71.94743210
_cell_angle_gamma   69.71206704
_symmetry_Int_Tables_number   1
_chemical_formula_structural   MgH8(ClO6)2
_chemical_formula_sum   'Mg1 H8 Cl2 O12'
_cell_volume   249.37716076
_cell_formula_units_Z   1
loop_
 _symmetry_equiv_pos_site_id
 _symmetry_equiv_pos_as_xyz
  1  'x, y, z'
loop_
 _atom_site_type_symbol
 _atom_site_label
 _atom_site_symmetry_multiplicity
 _atom_site_fract_x
 _atom_site_fract_y
 _atom_site_fract_z
 _atom_site_occupancy
  Mg  Mg0  1  0.00000000  0.00000000  0.00000000  1
  H  H1  1  0.24133700  0.04243000  0.26329700  1
  H  H2  1  0.04243000  0.24133700  0.26329700  1
  H  H3  1  0.61948200  0.28188400  0.13472700  1
  H  H4  1  0.71811600  0.38051800  0.86527300  1
  H  H5  1  0.28188400  0.61948200  0.13472700  1
  H  H6  1  0.38051800  0.71811600  0.86527300  1
  H  H7  1  0.95757000  0.75866300  0.73670300  1
  H  H8  1  0.75866300  0.95757000  0.73670300  1
  Cl  Cl9  1  0.30192300  0.30192300  0.60274800  1
  Cl  Cl10  1  0.69807700  0.69807700  0.39725200  1
  O  O11  1  0.11618600  0.11618600  0.19616300  1
  O  O12  1  0.16312300  0.16312300  0.65876000  1
  O  O13  1  0.48791400  0.18665400  0.69931000  1
  O  O14  1  0.74273000  0.25727000  0.00000000  1
  O  O15  1  0.36390300  0.36390300  0.33809800  1
  O  O16  1  0.18665400  0.48791400  0.69931000  1
  O  O17  1  0.81334600  0.51208600  0.30069000  1
  O  O18  1  0.63609700  0.63609700  0.66190200  1
  O  O19  1  0.25727000  0.74273000  0.00000000  1
  O  O20  1  0.51208600  0.81334600  0.30069000  1
  O  O21  1  0.83687700  0.83687700  0.34124000  1
  O  O22  1  0.88381400  0.88381400  0.80383700  1
