# generated using pymatgen
data_CsK2PdF5
_symmetry_space_group_name_H-M   'P 1'
_cell_length_a   7.49485200
_cell_length_b   7.49485200
_cell_length_c   6.36249500
_cell_angle_alpha   90.00000000
_cell_angle_beta   90.00000000
_cell_angle_gamma   90.00000000
_symmetry_Int_Tables_number   1
_chemical_formula_structural   CsK2PdF5
_chemical_formula_sum   'Cs2 K4 Pd2 F10'
_cell_volume   357.39920050
_cell_formula_units_Z   2
loop_
 _symmetry_equiv_pos_site_id
 _symmetry_equiv_pos_as_xyz
  1  'x, y, z'
loop_
 _atom_site_type_symbol
 _atom_site_label
 _atom_site_symmetry_multiplicity
 _atom_site_fract_x
 _atom_site_fract_y
 _atom_site_fract_z
 _atom_site_occupancy
  Cs  Cs0  1  0.50000000  0.50000000  0.00000000  1
  Cs  Cs1  1  0.00000000  0.00000000  0.00000000  1
  K  K2  1  0.82183700  0.32183700  0.50000000  1
  K  K3  1  0.32183700  0.17816300  0.50000000  1
  K  K4  1  0.17816300  0.67816300  0.50000000  1
  K  K5  1  0.67816300  0.82183700  0.50000000  1
  Pd  Pd6  1  0.50000000  0.00000000  0.00000000  1
  Pd  Pd7  1  0.00000000  0.50000000  0.00000000  1
  F  F8  1  0.36929000  0.86929000  0.77491000  1
  F  F9  1  0.63071000  0.13071000  0.77491000  1
  F  F10  1  0.13071000  0.36929000  0.77491000  1
  F  F11  1  0.86929000  0.63071000  0.77491000  1
  F  F12  1  0.36929000  0.86929000  0.22509000  1
  F  F13  1  0.86929000  0.63071000  0.22509000  1
  F  F14  1  0.13071000  0.36929000  0.22509000  1
  F  F15  1  0.63071000  0.13071000  0.22509000  1
  F  F16  1  0.00000000  0.00000000  0.50000000  1
  F  F17  1  0.50000000  0.50000000  0.50000000  1
