# generated using pymatgen
data_V4GeSe8
_symmetry_space_group_name_H-M   'P 1'
_cell_length_a   7.24558177
_cell_length_b   7.24558177
_cell_length_c   7.24558177
_cell_angle_alpha   60.00000000
_cell_angle_beta   60.00000000
_cell_angle_gamma   60.00000000
_symmetry_Int_Tables_number   1
_chemical_formula_structural   V4GeSe8
_chemical_formula_sum   'V4 Ge1 Se8'
_cell_volume   268.97058496
_cell_formula_units_Z   1
loop_
 _symmetry_equiv_pos_site_id
 _symmetry_equiv_pos_as_xyz
  1  'x, y, z'
loop_
 _atom_site_type_symbol
 _atom_site_label
 _atom_site_symmetry_multiplicity
 _atom_site_fract_x
 _atom_site_fract_y
 _atom_site_fract_z
 _atom_site_occupancy
  V  V0  1  0.60218000  0.60218000  0.19346000  1
  V  V1  1  0.60218000  0.60218000  0.60218000  1
  V  V2  1  0.19346000  0.60218000  0.60218000  1
  V  V3  1  0.60218000  0.19346000  0.60218000  1
  Ge  Ge4  1  0.00000000  0.00000000  0.00000000  1
  Se  Se5  1  0.36872300  0.36872300  0.36872300  1
  Se  Se6  1  0.89383100  0.36872300  0.36872300  1
  Se  Se7  1  0.36872300  0.89383100  0.36872300  1
  Se  Se8  1  0.36872300  0.36872300  0.89383100  1
  Se  Se9  1  0.86068100  0.86068100  0.86068100  1
  Se  Se10  1  0.41795700  0.86068100  0.86068100  1
  Se  Se11  1  0.86068100  0.41795700  0.86068100  1
  Se  Se12  1  0.86068100  0.86068100  0.41795700  1
