# generated using pymatgen
data_ErSi2Rh3
_symmetry_space_group_name_H-M   'P 1'
_cell_length_a   6.61361661
_cell_length_b   6.61361661
_cell_length_c   6.61361661
_cell_angle_alpha   130.36450085
_cell_angle_beta   114.17227432
_cell_angle_gamma   86.72493462
_symmetry_Int_Tables_number   1
_chemical_formula_structural   ErSi2Rh3
_chemical_formula_sum   'Er2 Si4 Rh6'
_cell_volume   191.86743475
_cell_formula_units_Z   2
loop_
 _symmetry_equiv_pos_site_id
 _symmetry_equiv_pos_as_xyz
  1  'x, y, z'
loop_
 _atom_site_type_symbol
 _atom_site_label
 _atom_site_symmetry_multiplicity
 _atom_site_fract_x
 _atom_site_fract_y
 _atom_site_fract_z
 _atom_site_occupancy
  Er  Er0  1  0.75000000  0.04782500  0.29782500  1
  Er  Er1  1  0.25000000  0.95217500  0.70217500  1
  Si  Si2  1  0.57842100  0.38532500  0.80690400  1
  Si  Si3  1  0.92157900  0.72848300  0.80690400  1
  Si  Si4  1  0.42157900  0.61467500  0.19309600  1
  Si  Si5  1  0.07842100  0.27151700  0.19309600  1
  Rh  Rh6  1  0.21366800  0.50000000  0.71366800  1
  Rh  Rh7  1  0.78633200  0.50000000  0.28633200  1
  Rh  Rh8  1  0.50000000  0.50000000  0.50000000  1
  Rh  Rh9  1  0.00000000  0.50000000  0.00000000  1
  Rh  Rh10  1  0.71366800  0.00000000  0.71366800  1
  Rh  Rh11  1  0.28633200  0.00000000  0.28633200  1
