# generated using pymatgen
data_Rb4H4C3O10
_symmetry_space_group_name_H-M   'P 1'
_cell_length_a   6.29033300
_cell_length_b   12.46831200
_cell_length_c   15.86052000
_cell_angle_alpha   90.00000000
_cell_angle_beta   90.00000000
_cell_angle_gamma   90.00000000
_symmetry_Int_Tables_number   1
_chemical_formula_structural   Rb4H4C3O10
_chemical_formula_sum   'Rb16 H16 C12 O40'
_cell_volume   1243.93795754
_cell_formula_units_Z   4
loop_
 _symmetry_equiv_pos_site_id
 _symmetry_equiv_pos_as_xyz
  1  'x, y, z'
loop_
 _atom_site_type_symbol
 _atom_site_label
 _atom_site_symmetry_multiplicity
 _atom_site_fract_x
 _atom_site_fract_y
 _atom_site_fract_z
 _atom_site_occupancy
  Rb  Rb0  1  0.18902100  0.12511600  0.62343900  1
  Rb  Rb1  1  0.18902100  0.12511600  0.87656100  1
  Rb  Rb2  1  0.17943000  0.14693400  0.12779800  1
  Rb  Rb3  1  0.17943000  0.14693400  0.37220200  1
  Rb  Rb4  1  0.67943000  0.35306600  0.62779800  1
  Rb  Rb5  1  0.67943000  0.35306600  0.87220200  1
  Rb  Rb6  1  0.68902100  0.37488400  0.37656100  1
  Rb  Rb7  1  0.68902100  0.37488400  0.12343900  1
  Rb  Rb8  1  0.31097900  0.62511600  0.87656100  1
  Rb  Rb9  1  0.31097900  0.62511600  0.62343900  1
  Rb  Rb10  1  0.32057000  0.64693400  0.12779800  1
  Rb  Rb11  1  0.32057000  0.64693400  0.37220200  1
  Rb  Rb12  1  0.82057000  0.85306600  0.87220200  1
  Rb  Rb13  1  0.82057000  0.85306600  0.62779800  1
  Rb  Rb14  1  0.81097900  0.87488400  0.12343900  1
  Rb  Rb15  1  0.81097900  0.87488400  0.37656100  1
  H  H16  1  0.70560600  0.09085900  0.59270500  1
  H  H17  1  0.70560600  0.09085900  0.90729500  1
  H  H18  1  0.62862900  0.15455800  0.19947300  1
  H  H19  1  0.62862900  0.15455800  0.30052700  1
  H  H20  1  0.12862900  0.34544200  0.69947300  1
  H  H21  1  0.12862900  0.34544200  0.80052700  1
  H  H22  1  0.20560600  0.40914100  0.09270500  1
  H  H23  1  0.20560600  0.40914100  0.40729500  1
  H  H24  1  0.79439400  0.59085900  0.90729500  1
  H  H25  1  0.79439400  0.59085900  0.59270500  1
  H  H26  1  0.87137100  0.65455800  0.19947300  1
  H  H27  1  0.87137100  0.65455800  0.30052700  1
  H  H28  1  0.37137100  0.84544200  0.69947300  1
  H  H29  1  0.37137100  0.84544200  0.80052700  1
  H  H30  1  0.29439400  0.90914100  0.09270500  1
  H  H31  1  0.29439400  0.90914100  0.40729500  1
  C  C32  1  0.71970400  0.09442000  0.75000000  1
  C  C33  1  0.66063700  0.12672800  0.02865500  1
  C  C34  1  0.66063700  0.12672800  0.47134500  1
  C  C35  1  0.16063700  0.37327200  0.52865500  1
  C  C36  1  0.16063700  0.37327200  0.97134500  1
  C  C37  1  0.21970400  0.40558000  0.25000000  1
  C  C38  1  0.78029600  0.59442000  0.75000000  1
  C  C39  1  0.83936300  0.62672800  0.02865500  1
  C  C40  1  0.83936300  0.62672800  0.47134500  1
  C  C41  1  0.33936300  0.87327200  0.52865500  1
  C  C42  1  0.33936300  0.87327200  0.97134500  1
  C  C43  1  0.28029600  0.90558000  0.25000000  1
  O  O44  1  0.88010600  0.02965200  0.75000000  1
  O  O45  1  0.75753100  0.06700900  0.53263500  1
  O  O46  1  0.75753100  0.06700900  0.96736500  1
  O  O47  1  0.72121100  0.10529500  0.10397300  1
  O  O48  1  0.72121100  0.10529500  0.39602700  1
  O  O49  1  0.63585800  0.12871100  0.67930000  1
  O  O50  1  0.63585800  0.12871100  0.82070000  1
  O  O51  1  0.56889300  0.19134700  0.25000000  1
  O  O52  1  0.52300100  0.19606000  0.00800200  1
  O  O53  1  0.52300100  0.19606000  0.49199800  1
  O  O54  1  0.02300100  0.30394000  0.50800200  1
  O  O55  1  0.02300100  0.30394000  0.99199800  1
  O  O56  1  0.06889300  0.30865300  0.75000000  1
  O  O57  1  0.13585800  0.37128900  0.17930000  1
  O  O58  1  0.13585800  0.37128900  0.32070000  1
  O  O59  1  0.22121100  0.39470500  0.60397300  1
  O  O60  1  0.22121100  0.39470500  0.89602700  1
  O  O61  1  0.25753100  0.43299100  0.03263500  1
  O  O62  1  0.25753100  0.43299100  0.46736500  1
  O  O63  1  0.38010600  0.47034800  0.25000000  1
  O  O64  1  0.61989400  0.52965200  0.75000000  1
  O  O65  1  0.74246900  0.56700900  0.96736500  1
  O  O66  1  0.74246900  0.56700900  0.53263500  1
  O  O67  1  0.77878900  0.60529500  0.10397300  1
  O  O68  1  0.77878900  0.60529500  0.39602700  1
  O  O69  1  0.86414200  0.62871100  0.82070000  1
  O  O70  1  0.86414200  0.62871100  0.67930000  1
  O  O71  1  0.93110700  0.69134700  0.25000000  1
  O  O72  1  0.97699900  0.69606000  0.00800200  1
  O  O73  1  0.97699900  0.69606000  0.49199800  1
  O  O74  1  0.47699900  0.80394000  0.50800200  1
  O  O75  1  0.47699900  0.80394000  0.99199800  1
  O  O76  1  0.43110700  0.80865300  0.75000000  1
  O  O77  1  0.36414200  0.87128900  0.17930000  1
  O  O78  1  0.36414200  0.87128900  0.32070000  1
  O  O79  1  0.27878900  0.89470500  0.89602700  1
  O  O80  1  0.27878900  0.89470500  0.60397300  1
  O  O81  1  0.24246900  0.93299100  0.03263500  1
  O  O82  1  0.24246900  0.93299100  0.46736500  1
  O  O83  1  0.11989400  0.97034800  0.25000000  1
