# generated using pymatgen
data_YCo
_symmetry_space_group_name_H-M   'P 1'
_cell_length_a   7.20958978
_cell_length_b   7.20958978
_cell_length_c   7.20958979
_cell_angle_alpha   31.45367633
_cell_angle_beta   31.45367633
_cell_angle_gamma   31.45367504
_symmetry_Int_Tables_number   1
_chemical_formula_structural   YCo
_chemical_formula_sum   'Y2 Co2'
_cell_volume   90.58133409
_cell_formula_units_Z   2
loop_
 _symmetry_equiv_pos_site_id
 _symmetry_equiv_pos_as_xyz
  1  'x, y, z'
loop_
 _atom_site_type_symbol
 _atom_site_label
 _atom_site_symmetry_multiplicity
 _atom_site_fract_x
 _atom_site_fract_y
 _atom_site_fract_z
 _atom_site_occupancy
  Y  Y0  1  0.91257900  0.91257900  0.91257900  1
  Y  Y1  1  0.08742100  0.08742100  0.08742100  1
  Co  Co2  1  0.33263500  0.33263500  0.33263500  1
  Co  Co3  1  0.66736500  0.66736500  0.66736500  1
