# generated using pymatgen
data_SmI3
_symmetry_space_group_name_H-M   'P 1'
_cell_length_a   11.29408430
_cell_length_b   11.29408430
_cell_length_c   4.08679500
_cell_angle_alpha   90.00000000
_cell_angle_beta   90.00000000
_cell_angle_gamma   120.00000174
_symmetry_Int_Tables_number   1
_chemical_formula_structural   SmI3
_chemical_formula_sum   'Sm2 I6'
_cell_volume   451.45610185
_cell_formula_units_Z   2
loop_
 _symmetry_equiv_pos_site_id
 _symmetry_equiv_pos_as_xyz
  1  'x, y, z'
loop_
 _atom_site_type_symbol
 _atom_site_label
 _atom_site_symmetry_multiplicity
 _atom_site_fract_x
 _atom_site_fract_y
 _atom_site_fract_z
 _atom_site_occupancy
  Sm  Sm0  1  0.33333300  0.66666700  0.75000000  1
  Sm  Sm1  1  0.66666700  0.33333300  0.25000000  1
  I  I2  1  0.21256600  0.42513200  0.25000000  1
  I  I3  1  0.57486800  0.78743400  0.25000000  1
  I  I4  1  0.21256600  0.78743400  0.25000000  1
  I  I5  1  0.78743400  0.57486800  0.75000000  1
  I  I6  1  0.42513200  0.21256600  0.75000000  1
  I  I7  1  0.78743400  0.21256600  0.75000000  1
