# generated using pymatgen
data_Zn3Pt
_symmetry_space_group_name_H-M   'P 1'
_cell_length_a   4.86316287
_cell_length_b   4.86316287
_cell_length_c   4.86316287
_cell_angle_alpha   134.16728595
_cell_angle_beta   134.16728595
_cell_angle_gamma   66.82683926
_symmetry_Int_Tables_number   1
_chemical_formula_structural   Zn3Pt
_chemical_formula_sum   'Zn3 Pt1'
_cell_volume   58.22632751
_cell_formula_units_Z   1
loop_
 _symmetry_equiv_pos_site_id
 _symmetry_equiv_pos_as_xyz
  1  'x, y, z'
loop_
 _atom_site_type_symbol
 _atom_site_label
 _atom_site_symmetry_multiplicity
 _atom_site_fract_x
 _atom_site_fract_y
 _atom_site_fract_z
 _atom_site_occupancy
  Zn  Zn0  1  0.75000000  0.25000000  0.50000000  1
  Zn  Zn1  1  0.25000000  0.75000000  0.50000000  1
  Zn  Zn2  1  0.50000000  0.50000000  0.00000000  1
  Pt  Pt3  1  0.00000000  0.00000000  0.00000000  1
