# generated using pymatgen
data_ScAg(PS3)2
_symmetry_space_group_name_H-M   'P 1'
_cell_length_a   6.22209136
_cell_length_b   6.22209136
_cell_length_c   14.57894300
_cell_angle_alpha   90.00000000
_cell_angle_beta   90.00000000
_cell_angle_gamma   119.99999322
_symmetry_Int_Tables_number   1
_chemical_formula_structural   ScAg(PS3)2
_chemical_formula_sum   'Sc2 Ag2 P4 S12'
_cell_volume   488.79805253
_cell_formula_units_Z   2
loop_
 _symmetry_equiv_pos_site_id
 _symmetry_equiv_pos_as_xyz
  1  'x, y, z'
loop_
 _atom_site_type_symbol
 _atom_site_label
 _atom_site_symmetry_multiplicity
 _atom_site_fract_x
 _atom_site_fract_y
 _atom_site_fract_z
 _atom_site_occupancy
  Sc  Sc0  1  0.00000000  0.00000000  0.75000000  1
  Sc  Sc1  1  0.00000000  0.00000000  0.25000000  1
  Ag  Ag2  1  0.33333300  0.66666700  0.75000000  1
  Ag  Ag3  1  0.66666700  0.33333300  0.25000000  1
  P  P4  1  0.66666700  0.33333300  0.67369100  1
  P  P5  1  0.66666700  0.33333300  0.82630900  1
  P  P6  1  0.33333300  0.66666700  0.32630900  1
  P  P7  1  0.33333300  0.66666700  0.17369100  1
  S  S8  1  0.96581600  0.30383600  0.86527600  1
  S  S9  1  0.33802000  0.30383600  0.63472400  1
  S  S10  1  0.96581600  0.66198000  0.63472400  1
  S  S11  1  0.69616400  0.03418400  0.63472400  1
  S  S12  1  0.30383600  0.33802000  0.13472400  1
  S  S13  1  0.66198000  0.96581600  0.13472400  1
  S  S14  1  0.03418400  0.69616400  0.13472400  1
  S  S15  1  0.66198000  0.69616400  0.36527600  1
  S  S16  1  0.03418400  0.33802000  0.36527600  1
  S  S17  1  0.30383600  0.96581600  0.36527600  1
  S  S18  1  0.69616400  0.66198000  0.86527600  1
  S  S19  1  0.33802000  0.03418400  0.86527600  1
