# generated using pymatgen
data_PaS3
_symmetry_space_group_name_H-M   'P 1'
_cell_length_a   5.76563889
_cell_length_b   5.76563889
_cell_length_c   5.00331600
_cell_angle_alpha   90.00000000
_cell_angle_beta   90.00000000
_cell_angle_gamma   120.00001017
_symmetry_Int_Tables_number   1
_chemical_formula_structural   PaS3
_chemical_formula_sum   'Pa2 S6'
_cell_volume   144.04009410
_cell_formula_units_Z   2
loop_
 _symmetry_equiv_pos_site_id
 _symmetry_equiv_pos_as_xyz
  1  'x, y, z'
loop_
 _atom_site_type_symbol
 _atom_site_label
 _atom_site_symmetry_multiplicity
 _atom_site_fract_x
 _atom_site_fract_y
 _atom_site_fract_z
 _atom_site_occupancy
  Pa  Pa0  1  0.66666700  0.33333300  0.25000000  1
  Pa  Pa1  1  0.33333300  0.66666700  0.75000000  1
  S  S2  1  0.82401600  0.17598400  0.75000000  1
  S  S3  1  0.35196800  0.17598400  0.75000000  1
  S  S4  1  0.82401600  0.64803200  0.75000000  1
  S  S5  1  0.17598400  0.82401600  0.25000000  1
  S  S6  1  0.64803200  0.82401600  0.25000000  1
  S  S7  1  0.17598400  0.35196800  0.25000000  1
