# generated using pymatgen
data_Ag2GePbS4
_symmetry_space_group_name_H-M   'P 1'
_cell_length_a   6.29483693
_cell_length_b   6.29483693
_cell_length_c   10.28345700
_cell_angle_alpha   90.00000000
_cell_angle_beta   90.00000000
_cell_angle_gamma   113.29791046
_symmetry_Int_Tables_number   1
_chemical_formula_structural   Ag2GePbS4
_chemical_formula_sum   'Ag4 Ge2 Pb2 S8'
_cell_volume   374.25596627
_cell_formula_units_Z   2
loop_
 _symmetry_equiv_pos_site_id
 _symmetry_equiv_pos_as_xyz
  1  'x, y, z'
loop_
 _atom_site_type_symbol
 _atom_site_label
 _atom_site_symmetry_multiplicity
 _atom_site_fract_x
 _atom_site_fract_y
 _atom_site_fract_z
 _atom_site_occupancy
  Ag  Ag0  1  0.58989800  0.35659400  0.90027200  1
  Ag  Ag1  1  0.58989800  0.35659400  0.59972800  1
  Ag  Ag2  1  0.35659400  0.58989800  0.40027200  1
  Ag  Ag3  1  0.35659400  0.58989800  0.09972900  1
  Ge  Ge4  1  0.32459400  0.72577500  0.75000000  1
  Ge  Ge5  1  0.72577500  0.32459400  0.25000000  1
  Pb  Pb6  1  0.98610600  0.98610600  0.00000000  1
  Pb  Pb7  1  0.98610600  0.98610600  0.50000000  1
  S  S8  1  0.51111300  0.90717400  0.93125200  1
  S  S9  1  0.97410400  0.73850700  0.75000000  1
  S  S10  1  0.27392700  0.35151200  0.75000000  1
  S  S11  1  0.51111300  0.90717400  0.56874800  1
  S  S12  1  0.90717400  0.51111300  0.43125200  1
  S  S13  1  0.73850700  0.97410400  0.25000000  1
  S  S14  1  0.35151200  0.27392700  0.25000000  1
  S  S15  1  0.90717400  0.51111300  0.06874800  1
