# generated using pymatgen
data_Tc3Ir
_symmetry_space_group_name_H-M   'P 1'
_cell_length_a   5.53963333
_cell_length_b   5.53963333
_cell_length_c   4.36353100
_cell_angle_alpha   90.00000000
_cell_angle_beta   90.00000000
_cell_angle_gamma   119.99999202
_symmetry_Int_Tables_number   1
_chemical_formula_structural   Tc3Ir
_chemical_formula_sum   'Tc6 Ir2'
_cell_volume   115.96602521
_cell_formula_units_Z   2
loop_
 _symmetry_equiv_pos_site_id
 _symmetry_equiv_pos_as_xyz
  1  'x, y, z'
loop_
 _atom_site_type_symbol
 _atom_site_label
 _atom_site_symmetry_multiplicity
 _atom_site_fract_x
 _atom_site_fract_y
 _atom_site_fract_z
 _atom_site_occupancy
  Tc  Tc0  1  0.83818800  0.16181200  0.75000000  1
  Tc  Tc1  1  0.32362500  0.16181200  0.75000000  1
  Tc  Tc2  1  0.83818800  0.67637500  0.75000000  1
  Tc  Tc3  1  0.16181200  0.83818800  0.25000000  1
  Tc  Tc4  1  0.67637500  0.83818800  0.25000000  1
  Tc  Tc5  1  0.16181200  0.32362500  0.25000000  1
  Ir  Ir6  1  0.66666700  0.33333300  0.25000000  1
  Ir  Ir7  1  0.33333300  0.66666700  0.75000000  1
