# generated using pymatgen
data_SmCu4Ag
_symmetry_space_group_name_H-M   'P 1'
_cell_length_a   5.10084346
_cell_length_b   5.10084346
_cell_length_c   5.10084346
_cell_angle_alpha   60.00000000
_cell_angle_beta   60.00000000
_cell_angle_gamma   60.00000000
_symmetry_Int_Tables_number   1
_chemical_formula_structural   SmCu4Ag
_chemical_formula_sum   'Sm1 Cu4 Ag1'
_cell_volume   93.84496766
_cell_formula_units_Z   1
loop_
 _symmetry_equiv_pos_site_id
 _symmetry_equiv_pos_as_xyz
  1  'x, y, z'
loop_
 _atom_site_type_symbol
 _atom_site_label
 _atom_site_symmetry_multiplicity
 _atom_site_fract_x
 _atom_site_fract_y
 _atom_site_fract_z
 _atom_site_occupancy
  Sm  Sm0  1  0.00000000  0.00000000  0.00000000  1
  Cu  Cu1  1  0.37618800  0.37618800  0.37618800  1
  Cu  Cu2  1  0.87143600  0.37618800  0.37618800  1
  Cu  Cu3  1  0.37618800  0.87143600  0.37618800  1
  Cu  Cu4  1  0.37618800  0.37618800  0.87143600  1
  Ag  Ag5  1  0.75000000  0.75000000  0.75000000  1
