# generated using pymatgen
data_Na3(Pt3O4)4
_symmetry_space_group_name_H-M   'P 1'
_cell_length_a   8.12459752
_cell_length_b   8.12459752
_cell_length_c   8.12459752
_cell_angle_alpha   60.00000000
_cell_angle_beta   60.00000000
_cell_angle_gamma   60.00000000
_symmetry_Int_Tables_number   1
_chemical_formula_structural   Na3(Pt3O4)4
_chemical_formula_sum   'Na3 Pt12 O16'
_cell_volume   379.21942004
_cell_formula_units_Z   1
loop_
 _symmetry_equiv_pos_site_id
 _symmetry_equiv_pos_as_xyz
  1  'x, y, z'
loop_
 _atom_site_type_symbol
 _atom_site_label
 _atom_site_symmetry_multiplicity
 _atom_site_fract_x
 _atom_site_fract_y
 _atom_site_fract_z
 _atom_site_occupancy
  Na  Na0  1  0.50000000  0.50000000  0.50000000  1
  Na  Na1  1  0.75000000  0.75000000  0.75000000  1
  Na  Na2  1  0.25000000  0.25000000  0.25000000  1
  Pt  Pt3  1  0.87522900  0.37222300  0.12477100  1
  Pt  Pt4  1  0.62777700  0.12477100  0.37222300  1
  Pt  Pt5  1  0.87522900  0.12477100  0.62777700  1
  Pt  Pt6  1  0.87522900  0.62777700  0.37222300  1
  Pt  Pt7  1  0.37222300  0.12477100  0.87522900  1
  Pt  Pt8  1  0.62777700  0.37222300  0.87522900  1
  Pt  Pt9  1  0.37222300  0.87522900  0.62777700  1
  Pt  Pt10  1  0.12477100  0.62777700  0.87522900  1
  Pt  Pt11  1  0.37222300  0.62777700  0.12477100  1
  Pt  Pt12  1  0.62777700  0.87522900  0.12477100  1
  Pt  Pt13  1  0.12477100  0.37222300  0.62777700  1
  Pt  Pt14  1  0.12477100  0.87522900  0.37222300  1
  O  O15  1  0.62448500  0.12654500  0.62448500  1
  O  O16  1  0.87345500  0.37551500  0.37551500  1
  O  O17  1  0.87060900  0.87060900  0.38817400  1
  O  O18  1  0.37551500  0.37551500  0.87345500  1
  O  O19  1  0.87060900  0.38817400  0.87060900  1
  O  O20  1  0.61182600  0.12939100  0.12939100  1
  O  O21  1  0.12939100  0.12939100  0.12939100  1
  O  O22  1  0.62448500  0.62448500  0.62448500  1
  O  O23  1  0.12939100  0.61182600  0.12939100  1
  O  O24  1  0.87060900  0.87060900  0.87060900  1
  O  O25  1  0.38817400  0.87060900  0.87060900  1
  O  O26  1  0.62448500  0.62448500  0.12654500  1
  O  O27  1  0.37551500  0.37551500  0.37551500  1
  O  O28  1  0.12939100  0.12939100  0.61182600  1
  O  O29  1  0.37551500  0.87345500  0.37551500  1
  O  O30  1  0.12654500  0.62448500  0.62448500  1
