# generated using pymatgen
data_BaNd2PdO5
_symmetry_space_group_name_H-M   'P 1'
_cell_length_a   6.81248700
_cell_length_b   6.81248700
_cell_length_c   5.98297600
_cell_angle_alpha   90.00000000
_cell_angle_beta   90.00000000
_cell_angle_gamma   90.00000000
_symmetry_Int_Tables_number   1
_chemical_formula_structural   BaNd2PdO5
_chemical_formula_sum   'Ba2 Nd4 Pd2 O10'
_cell_volume   277.66979127
_cell_formula_units_Z   2
loop_
 _symmetry_equiv_pos_site_id
 _symmetry_equiv_pos_as_xyz
  1  'x, y, z'
loop_
 _atom_site_type_symbol
 _atom_site_label
 _atom_site_symmetry_multiplicity
 _atom_site_fract_x
 _atom_site_fract_y
 _atom_site_fract_z
 _atom_site_occupancy
  Ba  Ba0  1  0.50000000  0.50000000  0.00000000  1
  Ba  Ba1  1  0.00000000  0.00000000  0.00000000  1
  Nd  Nd2  1  0.67367800  0.17367800  0.50000000  1
  Nd  Nd3  1  0.17367800  0.32632200  0.50000000  1
  Nd  Nd4  1  0.82632200  0.67367800  0.50000000  1
  Nd  Nd5  1  0.32632200  0.82632200  0.50000000  1
  Pd  Pd6  1  0.00000000  0.50000000  0.00000000  1
  Pd  Pd7  1  0.50000000  0.00000000  0.00000000  1
  O  O8  1  0.50000000  0.50000000  0.50000000  1
  O  O9  1  0.00000000  0.00000000  0.50000000  1
  O  O10  1  0.14045100  0.64045100  0.25188300  1
  O  O11  1  0.85954900  0.35954900  0.25188300  1
  O  O12  1  0.35954900  0.14045100  0.25188300  1
  O  O13  1  0.64045100  0.85954900  0.25188300  1
  O  O14  1  0.14045100  0.64045100  0.74811700  1
  O  O15  1  0.64045100  0.85954900  0.74811700  1
  O  O16  1  0.85954900  0.35954900  0.74811700  1
  O  O17  1  0.35954900  0.14045100  0.74811700  1
