# generated using pymatgen
data_AcCd3
_symmetry_space_group_name_H-M   'P 1'
_cell_length_a   7.19984193
_cell_length_b   7.19984193
_cell_length_c   5.11609000
_cell_angle_alpha   90.00000000
_cell_angle_beta   90.00000000
_cell_angle_gamma   119.99999940
_symmetry_Int_Tables_number   1
_chemical_formula_structural   AcCd3
_chemical_formula_sum   'Ac2 Cd6'
_cell_volume   229.67553369
_cell_formula_units_Z   2
loop_
 _symmetry_equiv_pos_site_id
 _symmetry_equiv_pos_as_xyz
  1  'x, y, z'
loop_
 _atom_site_type_symbol
 _atom_site_label
 _atom_site_symmetry_multiplicity
 _atom_site_fract_x
 _atom_site_fract_y
 _atom_site_fract_z
 _atom_site_occupancy
  Ac  Ac0  1  0.33333300  0.66666700  0.75000000  1
  Ac  Ac1  1  0.66666700  0.33333300  0.25000000  1
  Cd  Cd2  1  0.15010900  0.30021700  0.25000000  1
  Cd  Cd3  1  0.69978300  0.84989100  0.25000000  1
  Cd  Cd4  1  0.15010900  0.84989100  0.25000000  1
  Cd  Cd5  1  0.84989100  0.69978300  0.75000000  1
  Cd  Cd6  1  0.30021700  0.15010900  0.75000000  1
  Cd  Cd7  1  0.84989100  0.15010900  0.75000000  1
