# generated using pymatgen
data_KLaSiS4
_symmetry_space_group_name_H-M   'P 1'
_cell_length_a   6.73294300
_cell_length_b   6.64313500
_cell_length_c   8.79158613
_cell_angle_alpha   72.68683793
_cell_angle_beta   90.00000000
_cell_angle_gamma   90.00000000
_symmetry_Int_Tables_number   1
_chemical_formula_structural   KLaSiS4
_chemical_formula_sum   'K2 La2 Si2 S8'
_cell_volume   375.41251311
_cell_formula_units_Z   2
loop_
 _symmetry_equiv_pos_site_id
 _symmetry_equiv_pos_as_xyz
  1  'x, y, z'
loop_
 _atom_site_type_symbol
 _atom_site_label
 _atom_site_symmetry_multiplicity
 _atom_site_fract_x
 _atom_site_fract_y
 _atom_site_fract_z
 _atom_site_occupancy
  K  K0  1  0.97525500  0.22857100  0.56606400  1
  K  K1  1  0.47525500  0.77142900  0.43393600  1
  La  La2  1  0.49109100  0.73272500  0.94731900  1
  La  La3  1  0.99109100  0.26727500  0.05268100  1
  Si  Si4  1  0.46219200  0.28583900  0.81605200  1
  Si  Si5  1  0.96219200  0.71416100  0.18394800  1
  S  S6  1  0.46118000  0.09351800  0.66433400  1
  S  S7  1  0.22772800  0.51139600  0.77032100  1
  S  S8  1  0.72346200  0.47562400  0.78462100  1
  S  S9  1  0.92609100  0.89812800  0.94038500  1
  S  S10  1  0.42609100  0.10187200  0.05961500  1
  S  S11  1  0.22346200  0.52437600  0.21537900  1
  S  S12  1  0.72772800  0.48860400  0.22967900  1
  S  S13  1  0.96118000  0.90648200  0.33566600  1
