# generated using pymatgen
data_Tc3Pt
_symmetry_space_group_name_H-M   'P 1'
_cell_length_a   5.55504827
_cell_length_b   5.55504827
_cell_length_c   4.40031900
_cell_angle_alpha   90.00000000
_cell_angle_beta   90.00000000
_cell_angle_gamma   120.00000323
_symmetry_Int_Tables_number   1
_chemical_formula_structural   Tc3Pt
_chemical_formula_sum   'Tc6 Pt2'
_cell_volume   117.59543244
_cell_formula_units_Z   2
loop_
 _symmetry_equiv_pos_site_id
 _symmetry_equiv_pos_as_xyz
  1  'x, y, z'
loop_
 _atom_site_type_symbol
 _atom_site_label
 _atom_site_symmetry_multiplicity
 _atom_site_fract_x
 _atom_site_fract_y
 _atom_site_fract_z
 _atom_site_occupancy
  Tc  Tc0  1  0.15890600  0.31781300  0.25000000  1
  Tc  Tc1  1  0.68218700  0.84109400  0.25000000  1
  Tc  Tc2  1  0.15890600  0.84109400  0.25000000  1
  Tc  Tc3  1  0.84109400  0.68218700  0.75000000  1
  Tc  Tc4  1  0.31781300  0.15890600  0.75000000  1
  Tc  Tc5  1  0.84109400  0.15890600  0.75000000  1
  Pt  Pt6  1  0.33333300  0.66666700  0.75000000  1
  Pt  Pt7  1  0.66666700  0.33333300  0.25000000  1
