# generated using pymatgen
data_YbB2C
_symmetry_space_group_name_H-M   'P 1'
_cell_length_a   6.73911500
_cell_length_b   6.73911500
_cell_length_c   7.64514600
_cell_angle_alpha   90.00000000
_cell_angle_beta   90.00000000
_cell_angle_gamma   90.00000000
_symmetry_Int_Tables_number   1
_chemical_formula_structural   YbB2C
_chemical_formula_sum   'Yb8 B16 C8'
_cell_volume   347.20943535
_cell_formula_units_Z   8
loop_
 _symmetry_equiv_pos_site_id
 _symmetry_equiv_pos_as_xyz
  1  'x, y, z'
loop_
 _atom_site_type_symbol
 _atom_site_label
 _atom_site_symmetry_multiplicity
 _atom_site_fract_x
 _atom_site_fract_y
 _atom_site_fract_z
 _atom_site_occupancy
  Yb  Yb0  1  0.81482400  0.31482400  0.25000000  1
  Yb  Yb1  1  0.18517600  0.68517600  0.25000000  1
  Yb  Yb2  1  0.31482400  0.18517600  0.75000000  1
  Yb  Yb3  1  0.68517600  0.81482400  0.75000000  1
  Yb  Yb4  1  0.18517600  0.68517600  0.75000000  1
  Yb  Yb5  1  0.81482400  0.31482400  0.75000000  1
  Yb  Yb6  1  0.68517600  0.81482400  0.25000000  1
  Yb  Yb7  1  0.31482400  0.18517600  0.25000000  1
  B  B8  1  0.90466900  0.59715600  0.00000000  1
  B  B9  1  0.09533100  0.40284400  0.00000000  1
  B  B10  1  0.40466900  0.90284400  0.00000000  1
  B  B11  1  0.59533100  0.09715600  0.00000000  1
  B  B12  1  0.40284400  0.90466900  0.50000000  1
  B  B13  1  0.59715600  0.09533100  0.50000000  1
  B  B14  1  0.09715600  0.40466900  0.50000000  1
  B  B15  1  0.90284400  0.59533100  0.50000000  1
  B  B16  1  0.64991100  0.53505600  0.00000000  1
  B  B17  1  0.35008900  0.46494400  0.00000000  1
  B  B18  1  0.14991100  0.96494400  0.00000000  1
  B  B19  1  0.85008900  0.03505600  0.00000000  1
  B  B20  1  0.96494400  0.85008900  0.50000000  1
  B  B21  1  0.03505600  0.14991100  0.50000000  1
  B  B22  1  0.53505600  0.35008900  0.50000000  1
  B  B23  1  0.46494400  0.64991100  0.50000000  1
  C  C24  1  0.95900000  0.82264300  0.00000000  1
  C  C25  1  0.04100000  0.17735700  0.00000000  1
  C  C26  1  0.45900000  0.67735700  0.00000000  1
  C  C27  1  0.54100000  0.32264300  0.00000000  1
  C  C28  1  0.67735700  0.54100000  0.50000000  1
  C  C29  1  0.32264300  0.45900000  0.50000000  1
  C  C30  1  0.82264300  0.04100000  0.50000000  1
  C  C31  1  0.17735700  0.95900000  0.50000000  1
