# generated using pymatgen
data_Sc2Ni
_symmetry_space_group_name_H-M   'P 1'
_cell_length_a   8.54993922
_cell_length_b   8.54993922
_cell_length_c   8.54993922
_cell_angle_alpha   60.00000000
_cell_angle_beta   60.00000000
_cell_angle_gamma   60.00000000
_symmetry_Int_Tables_number   1
_chemical_formula_structural   Sc2Ni
_chemical_formula_sum   'Sc16 Ni8'
_cell_volume   441.95096260
_cell_formula_units_Z   8
loop_
 _symmetry_equiv_pos_site_id
 _symmetry_equiv_pos_as_xyz
  1  'x, y, z'
loop_
 _atom_site_type_symbol
 _atom_site_label
 _atom_site_symmetry_multiplicity
 _atom_site_fract_x
 _atom_site_fract_y
 _atom_site_fract_z
 _atom_site_occupancy
  Sc  Sc0  1  0.12500000  0.12500000  0.12500000  1
  Sc  Sc1  1  0.12500000  0.12500000  0.62500000  1
  Sc  Sc2  1  0.62500000  0.12500000  0.12500000  1
  Sc  Sc3  1  0.12500000  0.62500000  0.12500000  1
  Sc  Sc4  1  0.93564100  0.56435900  0.56435900  1
  Sc  Sc5  1  0.56435900  0.93564100  0.93564100  1
  Sc  Sc6  1  0.56435900  0.93564100  0.56435900  1
  Sc  Sc7  1  0.56435900  0.56435900  0.93564100  1
  Sc  Sc8  1  0.93564100  0.56435900  0.93564100  1
  Sc  Sc9  1  0.93564100  0.93564100  0.56435900  1
  Sc  Sc10  1  0.68564100  0.31435900  0.68564100  1
  Sc  Sc11  1  0.31435900  0.68564100  0.31435900  1
  Sc  Sc12  1  0.31435900  0.68564100  0.68564100  1
  Sc  Sc13  1  0.68564100  0.68564100  0.31435900  1
  Sc  Sc14  1  0.68564100  0.31435900  0.31435900  1
  Sc  Sc15  1  0.31435900  0.31435900  0.68564100  1
  Ni  Ni16  1  0.33702900  0.33702900  0.33702900  1
  Ni  Ni17  1  0.33702900  0.33702900  0.98891400  1
  Ni  Ni18  1  0.98891400  0.33702900  0.33702900  1
  Ni  Ni19  1  0.33702900  0.98891400  0.33702900  1
  Ni  Ni20  1  0.91297100  0.91297100  0.91297100  1
  Ni  Ni21  1  0.91297100  0.91297100  0.26108600  1
  Ni  Ni22  1  0.91297100  0.26108600  0.91297100  1
  Ni  Ni23  1  0.26108600  0.91297100  0.91297100  1
