# generated using pymatgen
data_K8Zr6BBr20
_symmetry_space_group_name_H-M   'P 1'
_cell_length_a   11.68309401
_cell_length_b   11.68309401
_cell_length_c   11.68309401
_cell_angle_alpha   60.00000000
_cell_angle_beta   60.00000000
_cell_angle_gamma   60.00000000
_symmetry_Int_Tables_number   1
_chemical_formula_structural   K8Zr6BBr20
_chemical_formula_sum   'K8 Zr6 B1 Br20'
_cell_volume   1127.60921467
_cell_formula_units_Z   1
loop_
 _symmetry_equiv_pos_site_id
 _symmetry_equiv_pos_as_xyz
  1  'x, y, z'
loop_
 _atom_site_type_symbol
 _atom_site_label
 _atom_site_symmetry_multiplicity
 _atom_site_fract_x
 _atom_site_fract_y
 _atom_site_fract_z
 _atom_site_occupancy
  K  K0  1  0.08090400  0.63969900  0.63969900  1
  K  K1  1  0.63969900  0.08090400  0.63969900  1
  K  K2  1  0.63969900  0.63969900  0.08090400  1
  K  K3  1  0.63969900  0.63969900  0.63969900  1
  K  K4  1  0.36030100  0.91909600  0.36030100  1
  K  K5  1  0.91909600  0.36030100  0.36030100  1
  K  K6  1  0.36030100  0.36030100  0.91909600  1
  K  K7  1  0.36030100  0.36030100  0.36030100  1
  Zr  Zr8  1  0.85902900  0.85902900  0.14097100  1
  Zr  Zr9  1  0.85902900  0.14097100  0.85902900  1
  Zr  Zr10  1  0.14097100  0.14097100  0.85902900  1
  Zr  Zr11  1  0.14097100  0.85902900  0.14097100  1
  Zr  Zr12  1  0.14097100  0.85902900  0.85902900  1
  Zr  Zr13  1  0.85902900  0.14097100  0.14097100  1
  B  B14  1  0.00000000  0.00000000  0.00000000  1
  Br  Br15  1  0.67088800  0.32911200  0.00000000  1
  Br  Br16  1  0.00000000  0.67088800  0.00000000  1
  Br  Br17  1  0.00000000  0.00000000  0.67088800  1
  Br  Br18  1  0.67088800  0.00000000  0.32911200  1
  Br  Br19  1  0.32911200  0.67088800  0.00000000  1
  Br  Br20  1  0.32911200  0.00000000  0.67088800  1
  Br  Br21  1  0.00000000  0.00000000  0.32911200  1
  Br  Br22  1  0.00000000  0.32911200  0.00000000  1
  Br  Br23  1  0.00000000  0.67088800  0.32911200  1
  Br  Br24  1  0.67088800  0.00000000  0.00000000  1
  Br  Br25  1  0.00000000  0.32911200  0.67088800  1
  Br  Br26  1  0.32911200  0.00000000  0.00000000  1
  Br  Br27  1  0.68245900  0.68245900  0.31754100  1
  Br  Br28  1  0.68245900  0.31754100  0.68245900  1
  Br  Br29  1  0.31754100  0.31754100  0.68245900  1
  Br  Br30  1  0.31754100  0.68245900  0.31754100  1
  Br  Br31  1  0.31754100  0.68245900  0.68245900  1
  Br  Br32  1  0.68245900  0.31754100  0.31754100  1
  Br  Br33  1  0.75000000  0.75000000  0.75000000  1
  Br  Br34  1  0.25000000  0.25000000  0.25000000  1
