# generated using pymatgen
data_RbNaS
_symmetry_space_group_name_H-M   'P 1'
_cell_length_a   4.73560900
_cell_length_b   4.73560900
_cell_length_c   7.65764200
_cell_angle_alpha   90.00000000
_cell_angle_beta   90.00000000
_cell_angle_gamma   90.00000000
_symmetry_Int_Tables_number   1
_chemical_formula_structural   RbNaS
_chemical_formula_sum   'Rb2 Na2 S2'
_cell_volume   171.73022283
_cell_formula_units_Z   2
loop_
 _symmetry_equiv_pos_site_id
 _symmetry_equiv_pos_as_xyz
  1  'x, y, z'
loop_
 _atom_site_type_symbol
 _atom_site_label
 _atom_site_symmetry_multiplicity
 _atom_site_fract_x
 _atom_site_fract_y
 _atom_site_fract_z
 _atom_site_occupancy
  Rb  Rb0  1  0.00000000  0.50000000  0.35085200  1
  Rb  Rb1  1  0.50000000  0.00000000  0.64914800  1
  Na  Na2  1  0.00000000  0.00000000  0.00000000  1
  Na  Na3  1  0.50000000  0.50000000  0.00000000  1
  S  S4  1  0.50000000  0.00000000  0.20618300  1
  S  S5  1  0.00000000  0.50000000  0.79381700  1
