# generated using pymatgen
data_Ba2Ca(BO2)6
_symmetry_space_group_name_H-M   'P 1'
_cell_length_a   7.35513894
_cell_length_b   7.35513894
_cell_length_c   7.35513852
_cell_angle_alpha   58.98648827
_cell_angle_beta   58.98648827
_cell_angle_gamma   58.98649093
_symmetry_Int_Tables_number   1
_chemical_formula_structural   Ba2Ca(BO2)6
_chemical_formula_sum   'Ba2 Ca1 B6 O12'
_cell_volume   274.85182485
_cell_formula_units_Z   1
loop_
 _symmetry_equiv_pos_site_id
 _symmetry_equiv_pos_as_xyz
  1  'x, y, z'
loop_
 _atom_site_type_symbol
 _atom_site_label
 _atom_site_symmetry_multiplicity
 _atom_site_fract_x
 _atom_site_fract_y
 _atom_site_fract_z
 _atom_site_occupancy
  Ba  Ba0  1  0.79422600  0.79422600  0.79422600  1
  Ba  Ba1  1  0.20577400  0.20577400  0.20577400  1
  Ca  Ca2  1  0.00000000  0.00000000  0.00000000  1
  B  B3  1  0.63064200  0.36634100  0.75464800  1
  B  B4  1  0.63365900  0.24535200  0.36935800  1
  B  B5  1  0.36935800  0.63365900  0.24535200  1
  B  B6  1  0.24535200  0.36935800  0.63365900  1
  B  B7  1  0.36634100  0.75464800  0.63064200  1
  B  B8  1  0.75464800  0.63064200  0.36634100  1
  O  O9  1  0.45943900  0.20427300  0.58009400  1
  O  O10  1  0.20427300  0.58009400  0.45943900  1
  O  O11  1  0.58009400  0.45943900  0.20427300  1
  O  O12  1  0.41990600  0.54056100  0.79572700  1
  O  O13  1  0.83673700  0.08702600  0.33547100  1
  O  O14  1  0.79572700  0.41990600  0.54056100  1
  O  O15  1  0.54056100  0.79572700  0.41990600  1
  O  O16  1  0.08702600  0.33547100  0.83673700  1
  O  O17  1  0.33547100  0.83673700  0.08702600  1
  O  O18  1  0.91297400  0.66452900  0.16326300  1
  O  O19  1  0.66452900  0.16326300  0.91297400  1
  O  O20  1  0.16326300  0.91297400  0.66452900  1
