# generated using pymatgen
data_Li2Cr5(Si2O7)2
_symmetry_space_group_name_H-M   'P 1'
_cell_length_a   5.61526948
_cell_length_b   13.46428597
_cell_length_c   8.03815713
_cell_angle_alpha   82.54520228
_cell_angle_beta   91.20726620
_cell_angle_gamma   84.49134799
_symmetry_Int_Tables_number   1
_chemical_formula_structural   Li2Cr5(Si2O7)2
_chemical_formula_sum   'Li4 Cr10 Si8 O28'
_cell_volume   599.46376857
_cell_formula_units_Z   2
loop_
 _symmetry_equiv_pos_site_id
 _symmetry_equiv_pos_as_xyz
  1  'x, y, z'
loop_
 _atom_site_type_symbol
 _atom_site_label
 _atom_site_symmetry_multiplicity
 _atom_site_fract_x
 _atom_site_fract_y
 _atom_site_fract_z
 _atom_site_occupancy
  Li  Li0  1  0.17352800  0.05458000  0.40128200  1
  Li  Li1  1  0.67341800  0.55453500  0.90125700  1
  Li  Li2  1  0.32657300  0.44547300  0.09874400  1
  Li  Li3  1  0.82645900  0.94542300  0.59873600  1
  Cr  Cr4  1  0.49994800  0.49996000  0.50006700  1
  Cr  Cr5  1  0.88212800  0.19218800  0.61878600  1
  Cr  Cr6  1  0.38173300  0.69269100  0.11782600  1
  Cr  Cr7  1  0.61822300  0.30732700  0.88214200  1
  Cr  Cr8  1  0.11782900  0.80784200  0.38115600  1
  Cr  Cr9  1  0.00017600  0.99997800  0.99999700  1
  Cr  Cr10  1  0.38047500  0.28617100  0.42491200  1
  Cr  Cr11  1  0.88016000  0.78555700  0.92456400  1
  Cr  Cr12  1  0.11985300  0.21441000  0.07545900  1
  Cr  Cr13  1  0.61951000  0.71383100  0.57506300  1
  Si  Si14  1  0.37781300  0.11285200  0.74343400  1
  Si  Si15  1  0.87818900  0.61285500  0.24320000  1
  Si  Si16  1  0.12176700  0.38715200  0.75684100  1
  Si  Si17  1  0.62223600  0.88715800  0.25653400  1
  Si  Si18  1  0.68949000  0.10352000  0.29127200  1
  Si  Si19  1  0.18927400  0.60338500  0.79144900  1
  Si  Si20  1  0.81071600  0.39662100  0.20856400  1
  Si  Si21  1  0.31052400  0.89648400  0.70871100  1
  O  O22  1  0.80022800  0.08375000  0.48395700  1
  O  O23  1  0.29998900  0.58376500  0.98411900  1
  O  O24  1  0.69999200  0.41622700  0.01589300  1
  O  O25  1  0.19977900  0.91625800  0.51603700  1
  O  O26  1  0.60303100  0.17610700  0.77728800  1
  O  O27  1  0.10348000  0.67607600  0.27727400  1
  O  O28  1  0.89652100  0.32393300  0.72270900  1
  O  O29  1  0.39700400  0.82390700  0.22267600  1
  O  O30  1  0.53014200  0.00691000  0.26493100  1
  O  O31  1  0.02965900  0.50689800  0.76510700  1
  O  O32  1  0.97032200  0.49311000  0.23490100  1
  O  O33  1  0.46984800  0.99309300  0.73508400  1
  O  O34  1  0.24097000  0.16200300  0.56200500  1
  O  O35  1  0.74100900  0.66182000  0.06180900  1
  O  O36  1  0.25897700  0.33817600  0.93819500  1
  O  O37  1  0.75905200  0.83800900  0.43798900  1
  O  O38  1  0.93179700  0.09485800  0.17573600  1
  O  O39  1  0.43176400  0.59456500  0.67628100  1
  O  O40  1  0.56820400  0.40543600  0.32372700  1
  O  O41  1  0.06821700  0.90512000  0.82423500  1
  O  O42  1  0.49941400  0.20212400  0.24245900  1
  O  O43  1  0.99938700  0.70195500  0.74212700  1
  O  O44  1  0.00058900  0.29804300  0.25788600  1
  O  O45  1  0.50057400  0.79787800  0.75754500  1
  O  O46  1  0.18594900  0.11636800  0.89491500  1
  O  O47  1  0.68590700  0.61626600  0.39432800  1
  O  O48  1  0.31403400  0.38370800  0.60571700  1
  O  O49  1  0.81413800  0.88364300  0.10507100  1
