# generated using pymatgen
data_PrBO3
_symmetry_space_group_name_H-M   'P 1'
_cell_length_a   5.09553300
_cell_length_b   5.83747200
_cell_length_c   8.22929200
_cell_angle_alpha   90.00000000
_cell_angle_beta   90.00000000
_cell_angle_gamma   90.00000000
_symmetry_Int_Tables_number   1
_chemical_formula_structural   PrBO3
_chemical_formula_sum   'Pr4 B4 O12'
_cell_volume   244.78054740
_cell_formula_units_Z   4
loop_
 _symmetry_equiv_pos_site_id
 _symmetry_equiv_pos_as_xyz
  1  'x, y, z'
loop_
 _atom_site_type_symbol
 _atom_site_label
 _atom_site_symmetry_multiplicity
 _atom_site_fract_x
 _atom_site_fract_y
 _atom_site_fract_z
 _atom_site_occupancy
  Pr  Pr0  1  0.25000000  0.74140000  0.08382000  1
  Pr  Pr1  1  0.75000000  0.75860000  0.58382000  1
  Pr  Pr2  1  0.25000000  0.24140000  0.41618000  1
  Pr  Pr3  1  0.75000000  0.25860000  0.91618000  1
  B  B4  1  0.25000000  0.58471300  0.73857300  1
  B  B5  1  0.75000000  0.91528700  0.23857300  1
  B  B6  1  0.25000000  0.08471300  0.76142700  1
  B  B7  1  0.75000000  0.41528700  0.26142700  1
  O  O8  1  0.01583100  0.58968700  0.82341800  1
  O  O9  1  0.98416900  0.91031300  0.32341800  1
  O  O10  1  0.48416900  0.08968700  0.67658200  1
  O  O11  1  0.51583100  0.41031300  0.17658200  1
  O  O12  1  0.98416900  0.41031300  0.17658200  1
  O  O13  1  0.01583100  0.08968700  0.67658200  1
  O  O14  1  0.51583100  0.91031300  0.32341800  1
  O  O15  1  0.48416900  0.58968700  0.82341800  1
  O  O16  1  0.25000000  0.59805600  0.57103700  1
  O  O17  1  0.75000000  0.90194400  0.07103700  1
  O  O18  1  0.25000000  0.09805600  0.92896300  1
  O  O19  1  0.75000000  0.40194400  0.42896300  1
