# generated using pymatgen
data_MgSc2
_symmetry_space_group_name_H-M   'P 1'
_cell_length_a   8.50019098
_cell_length_b   8.50019098
_cell_length_c   5.15151600
_cell_angle_alpha   90.00000000
_cell_angle_beta   90.00000000
_cell_angle_gamma   157.41198290
_symmetry_Int_Tables_number   1
_chemical_formula_structural   MgSc2
_chemical_formula_sum   'Mg2 Sc4'
_cell_volume   142.96813499
_cell_formula_units_Z   2
loop_
 _symmetry_equiv_pos_site_id
 _symmetry_equiv_pos_as_xyz
  1  'x, y, z'
loop_
 _atom_site_type_symbol
 _atom_site_label
 _atom_site_symmetry_multiplicity
 _atom_site_fract_x
 _atom_site_fract_y
 _atom_site_fract_z
 _atom_site_occupancy
  Mg  Mg0  1  0.94084900  0.05915100  0.75000000  1
  Mg  Mg1  1  0.05915100  0.94084900  0.25000000  1
  Sc  Sc2  1  0.60535200  0.39464800  0.75000000  1
  Sc  Sc3  1  0.27553000  0.72447000  0.75000000  1
  Sc  Sc4  1  0.39464800  0.60535200  0.25000000  1
  Sc  Sc5  1  0.72447000  0.27553000  0.25000000  1
