# generated using pymatgen
data_ZrGeO4
_symmetry_space_group_name_H-M   'P 1'
_cell_length_a   6.39762033
_cell_length_b   6.39762033
_cell_length_c   6.39762033
_cell_angle_alpha   134.71195331
_cell_angle_beta   134.71195331
_cell_angle_gamma   65.97808994
_symmetry_Int_Tables_number   1
_chemical_formula_structural   ZrGeO4
_chemical_formula_sum   'Zr2 Ge2 O8'
_cell_volume   130.22442354
_cell_formula_units_Z   2
loop_
 _symmetry_equiv_pos_site_id
 _symmetry_equiv_pos_as_xyz
  1  'x, y, z'
loop_
 _atom_site_type_symbol
 _atom_site_label
 _atom_site_symmetry_multiplicity
 _atom_site_fract_x
 _atom_site_fract_y
 _atom_site_fract_z
 _atom_site_occupancy
  Zr  Zr0  1  0.25000000  0.75000000  0.50000000  1
  Zr  Zr1  1  0.50000000  0.50000000  0.00000000  1
  Ge  Ge2  1  0.75000000  0.25000000  0.50000000  1
  Ge  Ge3  1  0.00000000  0.00000000  0.00000000  1
  O  O4  1  0.56496900  0.15879300  0.06054300  1
  O  O5  1  0.25442600  0.81496900  0.90617600  1
  O  O6  1  0.90879300  0.34825000  0.09382400  1
  O  O7  1  0.09825000  0.50442600  0.93945700  1
  O  O8  1  0.65175000  0.74557400  0.56054300  1
  O  O9  1  0.84120700  0.90175000  0.40617600  1
  O  O10  1  0.49557400  0.43503100  0.59382400  1
  O  O11  1  0.18503100  0.09120700  0.43945700  1
