# generated using pymatgen
data_K2Te2Pt
_symmetry_space_group_name_H-M   'P 1'
_cell_length_a   6.88943966
_cell_length_b   6.88943966
_cell_length_c   6.88943966
_cell_angle_alpha   145.97413965
_cell_angle_beta   109.30092744
_cell_angle_gamma   80.83287489
_symmetry_Int_Tables_number   1
_chemical_formula_structural   K2Te2Pt
_chemical_formula_sum   'K2 Te2 Pt1'
_cell_volume   168.57913990
_cell_formula_units_Z   1
loop_
 _symmetry_equiv_pos_site_id
 _symmetry_equiv_pos_as_xyz
  1  'x, y, z'
loop_
 _atom_site_type_symbol
 _atom_site_label
 _atom_site_symmetry_multiplicity
 _atom_site_fract_x
 _atom_site_fract_y
 _atom_site_fract_z
 _atom_site_occupancy
  K  K0  1  0.29307900  0.79307900  0.50000000  1
  K  K1  1  0.70692100  0.20692100  0.50000000  1
  Te  Te2  1  0.77965300  0.50000000  0.27965300  1
  Te  Te3  1  0.22034700  0.50000000  0.72034700  1
  Pt  Pt4  1  0.00000000  0.00000000  0.00000000  1
