# generated using pymatgen
data_BaTe3
_symmetry_space_group_name_H-M   'P 1'
_cell_length_a   8.08797900
_cell_length_b   8.08797900
_cell_length_c   4.41417600
_cell_angle_alpha   90.00000000
_cell_angle_beta   90.00000000
_cell_angle_gamma   90.00000000
_symmetry_Int_Tables_number   1
_chemical_formula_structural   BaTe3
_chemical_formula_sum   'Ba2 Te6'
_cell_volume   288.75510771
_cell_formula_units_Z   2
loop_
 _symmetry_equiv_pos_site_id
 _symmetry_equiv_pos_as_xyz
  1  'x, y, z'
loop_
 _atom_site_type_symbol
 _atom_site_label
 _atom_site_symmetry_multiplicity
 _atom_site_fract_x
 _atom_site_fract_y
 _atom_site_fract_z
 _atom_site_occupancy
  Ba  Ba0  1  0.50000000  0.50000000  0.00000000  1
  Ba  Ba1  1  0.00000000  0.00000000  0.00000000  1
  Te  Te2  1  0.80255000  0.69745000  0.50310900  1
  Te  Te3  1  0.30255000  0.80255000  0.49689100  1
  Te  Te4  1  0.00000000  0.50000000  0.10753100  1
  Te  Te5  1  0.50000000  0.00000000  0.89246900  1
  Te  Te6  1  0.19745000  0.30255000  0.50310900  1
  Te  Te7  1  0.69745000  0.19745000  0.49689100  1
