# generated using pymatgen
data_La2Mg(NiH4)2
_symmetry_space_group_name_H-M   'P 1'
_cell_length_a   7.74702400
_cell_length_b   11.75604500
_cell_length_c   11.92923321
_cell_angle_alpha   87.16945608
_cell_angle_beta   90.00000000
_cell_angle_gamma   90.00000000
_symmetry_Int_Tables_number   1
_chemical_formula_structural   La2Mg(NiH4)2
_chemical_formula_sum   'La16 Mg8 Ni16 H64'
_cell_volume   1085.12179742
_cell_formula_units_Z   8
loop_
 _symmetry_equiv_pos_site_id
 _symmetry_equiv_pos_as_xyz
  1  'x, y, z'
loop_
 _atom_site_type_symbol
 _atom_site_label
 _atom_site_symmetry_multiplicity
 _atom_site_fract_x
 _atom_site_fract_y
 _atom_site_fract_z
 _atom_site_occupancy
  La  La0  1  0.82694800  0.60000100  0.58680600  1
  La  La1  1  0.65541700  0.10320300  0.61124100  1
  La  La2  1  0.32042500  0.66149200  0.65816000  1
  La  La3  1  0.16280000  0.16647900  0.68193100  1
  La  La4  1  0.66280000  0.83352100  0.81806900  1
  La  La5  1  0.82042500  0.33850800  0.84184000  1
  La  La6  1  0.15541700  0.89679700  0.88875900  1
  La  La7  1  0.32694800  0.39999900  0.91319400  1
  La  La8  1  0.67305200  0.60000100  0.08680600  1
  La  La9  1  0.84458300  0.10320300  0.11124100  1
  La  La10  1  0.17957500  0.66149200  0.15816000  1
  La  La11  1  0.33720000  0.16647900  0.18193100  1
  La  La12  1  0.83720000  0.83352100  0.31806900  1
  La  La13  1  0.67957500  0.33850800  0.34184000  1
  La  La14  1  0.34458300  0.89679700  0.38875900  1
  La  La15  1  0.17305200  0.39999900  0.41319400  1
  Mg  Mg16  1  0.99707700  0.89743400  0.58671100  1
  Mg  Mg17  1  0.49812300  0.38825200  0.61886300  1
  Mg  Mg18  1  0.99812300  0.61174800  0.88113700  1
  Mg  Mg19  1  0.49707700  0.10256600  0.91328900  1
  Mg  Mg20  1  0.50292300  0.89743400  0.08671100  1
  Mg  Mg21  1  0.00187700  0.38825200  0.11886300  1
  Mg  Mg22  1  0.50187700  0.61174800  0.38113700  1
  Mg  Mg23  1  0.00292300  0.10256600  0.41328900  1
  Ni  Ni24  1  0.64885000  0.85012800  0.54625400  1
  Ni  Ni25  1  0.85559600  0.32318100  0.58029900  1
  Ni  Ni26  1  0.35512700  0.94277900  0.64931400  1
  Ni  Ni27  1  0.13048700  0.42788000  0.68087900  1
  Ni  Ni28  1  0.63048700  0.57212000  0.81912100  1
  Ni  Ni29  1  0.85512700  0.05722100  0.85068600  1
  Ni  Ni30  1  0.35559600  0.67681900  0.91970100  1
  Ni  Ni31  1  0.14885000  0.14987200  0.95374600  1
  Ni  Ni32  1  0.85115000  0.85012800  0.04625400  1
  Ni  Ni33  1  0.64440400  0.32318100  0.08029900  1
  Ni  Ni34  1  0.14487300  0.94277900  0.14931400  1
  Ni  Ni35  1  0.36951300  0.42788000  0.18087900  1
  Ni  Ni36  1  0.86951300  0.57212000  0.31912100  1
  Ni  Ni37  1  0.64487300  0.05722100  0.35068600  1
  Ni  Ni38  1  0.14440400  0.67681900  0.41970100  1
  Ni  Ni39  1  0.35115000  0.14987200  0.45374600  1
  H  H40  1  0.07460500  0.73520900  0.53254600  1
  H  H41  1  0.71529000  0.40757900  0.53717200  1
  H  H42  1  0.37130500  0.25029200  0.53977800  1
  H  H43  1  0.31561200  0.04080500  0.54387100  1
  H  H44  1  0.53513700  0.56969200  0.56249500  1
  H  H45  1  0.95636000  0.06445300  0.57252300  1
  H  H46  1  0.99505500  0.42724900  0.57750200  1
  H  H47  1  0.44665000  0.84248800  0.58339900  1
  H  H48  1  0.27771300  0.46567000  0.59848000  1
  H  H49  1  0.78945300  0.81301400  0.63242700  1
  H  H50  1  0.86426900  0.22999000  0.67877100  1
  H  H51  1  0.19282900  0.87053100  0.68422100  1
  H  H52  1  0.62412600  0.66444300  0.72014400  1
  H  H53  1  0.06750900  0.54665800  0.72949200  1
  H  H54  1  0.48443700  0.25066600  0.73403300  1
  H  H55  1  0.41469400  0.02182800  0.74679300  1
  H  H56  1  0.91469400  0.97817200  0.75320700  1
  H  H57  1  0.98443700  0.74933400  0.76596700  1
  H  H58  1  0.56750900  0.45334200  0.77050800  1
  H  H59  1  0.12412600  0.33555700  0.77985600  1
  H  H60  1  0.69282900  0.12946900  0.81577900  1
  H  H61  1  0.36426900  0.77001000  0.82122900  1
  H  H62  1  0.28945300  0.18698600  0.86757300  1
  H  H63  1  0.77771300  0.53433000  0.90152000  1
  H  H64  1  0.94665000  0.15751200  0.91660100  1
  H  H65  1  0.49505500  0.57275100  0.92249800  1
  H  H66  1  0.45636000  0.93554700  0.92747700  1
  H  H67  1  0.03513700  0.43030800  0.93750500  1
  H  H68  1  0.81561200  0.95919500  0.95612900  1
  H  H69  1  0.87130500  0.74970800  0.96022200  1
  H  H70  1  0.21529000  0.59242100  0.96282800  1
  H  H71  1  0.57460500  0.26479100  0.96745400  1
  H  H72  1  0.42539500  0.73520900  0.03254600  1
  H  H73  1  0.78471000  0.40757900  0.03717200  1
  H  H74  1  0.12869500  0.25029200  0.03977800  1
  H  H75  1  0.18438800  0.04080500  0.04387100  1
  H  H76  1  0.96486300  0.56969200  0.06249500  1
  H  H77  1  0.54364000  0.06445300  0.07252300  1
  H  H78  1  0.50494500  0.42724900  0.07750200  1
  H  H79  1  0.05335000  0.84248800  0.08339900  1
  H  H80  1  0.22228700  0.46567000  0.09848000  1
  H  H81  1  0.71054700  0.81301400  0.13242700  1
  H  H82  1  0.63573100  0.22999000  0.17877100  1
  H  H83  1  0.30717100  0.87053100  0.18422100  1
  H  H84  1  0.87587400  0.66444300  0.22014400  1
  H  H85  1  0.43249100  0.54665800  0.22949200  1
  H  H86  1  0.01556300  0.25066600  0.23403300  1
  H  H87  1  0.08530600  0.02182800  0.24679300  1
  H  H88  1  0.58530600  0.97817200  0.25320700  1
  H  H89  1  0.51556300  0.74933400  0.26596700  1
  H  H90  1  0.93249100  0.45334200  0.27050800  1
  H  H91  1  0.37587400  0.33555700  0.27985600  1
  H  H92  1  0.80717100  0.12946900  0.31577900  1
  H  H93  1  0.13573100  0.77001000  0.32122900  1
  H  H94  1  0.21054700  0.18698600  0.36757300  1
  H  H95  1  0.72228700  0.53433000  0.40152000  1
  H  H96  1  0.55335000  0.15751200  0.41660100  1
  H  H97  1  0.00494500  0.57275100  0.42249800  1
  H  H98  1  0.04364000  0.93554700  0.42747700  1
  H  H99  1  0.46486300  0.43030800  0.43750500  1
  H  H100  1  0.68438800  0.95919500  0.45612900  1
  H  H101  1  0.62869500  0.74970800  0.46022200  1
  H  H102  1  0.28471000  0.59242100  0.46282800  1
  H  H103  1  0.92539500  0.26479100  0.46745400  1
