# generated using pymatgen
data_PHPb2F10
_symmetry_space_group_name_H-M   'P 1'
_cell_length_a   4.65817000
_cell_length_b   4.84347843
_cell_length_c   8.92980694
_cell_angle_alpha   86.17547742
_cell_angle_beta   76.64118092
_cell_angle_gamma   81.78750032
_symmetry_Int_Tables_number   1
_chemical_formula_structural   PHPb2F10
_chemical_formula_sum   'P1 H1 Pb2 F10'
_cell_volume   193.89165123
_cell_formula_units_Z   1
loop_
 _symmetry_equiv_pos_site_id
 _symmetry_equiv_pos_as_xyz
  1  'x, y, z'
loop_
 _atom_site_type_symbol
 _atom_site_label
 _atom_site_symmetry_multiplicity
 _atom_site_fract_x
 _atom_site_fract_y
 _atom_site_fract_z
 _atom_site_occupancy
  P  P0  1  0.00000000  0.50000000  0.00000000  1
  H  H1  1  0.50000000  0.50000000  0.50000000  1
  Pb  Pb2  1  0.32493100  0.03187300  0.31427500  1
  Pb  Pb3  1  0.67506900  0.96812700  0.68572500  1
  F  F4  1  0.67993300  0.70072000  0.03439300  1
  F  F5  1  0.84378300  0.24070600  0.09623800  1
  F  F6  1  0.06659600  0.59660900  0.15977100  1
  F  F7  1  0.38803800  0.52716000  0.39661900  1
  F  F8  1  0.78893500  0.97873700  0.41455500  1
  F  F9  1  0.21106500  0.02126300  0.58544500  1
  F  F10  1  0.61196200  0.47284000  0.60338100  1
  F  F11  1  0.93340400  0.40339100  0.84022900  1
  F  F12  1  0.15621700  0.75929400  0.90376200  1
  F  F13  1  0.32006700  0.29928000  0.96560700  1
