# generated using pymatgen
data_Tl4SiS4
_symmetry_space_group_name_H-M   'P 1'
_cell_length_a   8.75744255
_cell_length_b   8.75744255
_cell_length_c   7.80755750
_cell_angle_alpha   72.29889034
_cell_angle_beta   72.29889034
_cell_angle_gamma   84.38294774
_symmetry_Int_Tables_number   1
_chemical_formula_structural   Tl4SiS4
_chemical_formula_sum   'Tl8 Si2 S8'
_cell_volume   543.41778713
_cell_formula_units_Z   2
loop_
 _symmetry_equiv_pos_site_id
 _symmetry_equiv_pos_as_xyz
  1  'x, y, z'
loop_
 _atom_site_type_symbol
 _atom_site_label
 _atom_site_symmetry_multiplicity
 _atom_site_fract_x
 _atom_site_fract_y
 _atom_site_fract_z
 _atom_site_occupancy
  Tl  Tl0  1  0.80829300  0.78472900  0.07698100  1
  Tl  Tl1  1  0.78472900  0.80829300  0.57698100  1
  Tl  Tl2  1  0.42321700  0.96486400  0.03701300  1
  Tl  Tl3  1  0.96486400  0.42321700  0.53701300  1
  Tl  Tl4  1  0.98973200  0.26298100  0.07813800  1
  Tl  Tl5  1  0.26298100  0.98973200  0.57813800  1
  Tl  Tl6  1  0.58109800  0.36846500  0.00721600  1
  Tl  Tl7  1  0.36846500  0.58109800  0.50721600  1
  Si  Si8  1  0.20225800  0.61747000  0.02794900  1
  Si  Si9  1  0.61747000  0.20225800  0.52794900  1
  S  S10  1  0.77102900  0.09476800  0.69975200  1
  S  S11  1  0.38132400  0.23402600  0.70441600  1
  S  S12  1  0.23402600  0.38132400  0.20441600  1
  S  S13  1  0.43057100  0.71148400  0.84333700  1
  S  S14  1  0.60662600  0.05546400  0.35639800  1
  S  S15  1  0.05546400  0.60662600  0.85639800  1
  S  S16  1  0.71148400  0.43057100  0.34333700  1
  S  S17  1  0.09476800  0.77102900  0.19975200  1
