# generated using pymatgen
data_PuBr2
_symmetry_space_group_name_H-M   'P 1'
_cell_length_a   7.23898000
_cell_length_b   7.23898000
_cell_length_c   4.24412300
_cell_angle_alpha   90.00000000
_cell_angle_beta   90.00000000
_cell_angle_gamma   90.00000000
_symmetry_Int_Tables_number   1
_chemical_formula_structural   PuBr2
_chemical_formula_sum   'Pu2 Br4'
_cell_volume   222.40406218
_cell_formula_units_Z   2
loop_
 _symmetry_equiv_pos_site_id
 _symmetry_equiv_pos_as_xyz
  1  'x, y, z'
loop_
 _atom_site_type_symbol
 _atom_site_label
 _atom_site_symmetry_multiplicity
 _atom_site_fract_x
 _atom_site_fract_y
 _atom_site_fract_z
 _atom_site_occupancy
  Pu  Pu0  1  0.00000000  0.00000000  0.00000000  1
  Pu  Pu1  1  0.50000000  0.50000000  0.50000000  1
  Br  Br2  1  0.29459300  0.29459300  0.00000000  1
  Br  Br3  1  0.70540700  0.70540700  0.00000000  1
  Br  Br4  1  0.20540700  0.79459300  0.50000000  1
  Br  Br5  1  0.79459300  0.20540700  0.50000000  1
