# generated using pymatgen
data_Cs(SbS2)2
_symmetry_space_group_name_H-M   'P 1'
_cell_length_a   6.73224800
_cell_length_b   7.03461641
_cell_length_c   9.81346697
_cell_angle_alpha   90.15039401
_cell_angle_beta   99.30249808
_cell_angle_gamma   103.70575516
_symmetry_Int_Tables_number   1
_chemical_formula_structural   Cs(SbS2)2
_chemical_formula_sum   'Cs2 Sb4 S8'
_cell_volume   445.17591627
_cell_formula_units_Z   2
loop_
 _symmetry_equiv_pos_site_id
 _symmetry_equiv_pos_as_xyz
  1  'x, y, z'
loop_
 _atom_site_type_symbol
 _atom_site_label
 _atom_site_symmetry_multiplicity
 _atom_site_fract_x
 _atom_site_fract_y
 _atom_site_fract_z
 _atom_site_occupancy
  Cs  Cs0  1  0.84495300  0.70462900  0.08246000  1
  Cs  Cs1  1  0.15504700  0.29537100  0.91754000  1
  Sb  Sb2  1  0.59505000  0.11831500  0.31862000  1
  Sb  Sb3  1  0.40495000  0.88168500  0.68138000  1
  Sb  Sb4  1  0.18509800  0.35576600  0.44485000  1
  Sb  Sb5  1  0.81490200  0.64423400  0.55515000  1
  S  S6  1  0.47142500  0.41901800  0.27554700  1
  S  S7  1  0.52857500  0.58098200  0.72445300  1
  S  S8  1  0.92720800  0.21360500  0.22995000  1
  S  S9  1  0.07279200  0.78639500  0.77005000  1
  S  S10  1  0.42973600  0.92983000  0.07995400  1
  S  S11  1  0.57026400  0.07017000  0.92004600  1
  S  S12  1  0.83759700  0.30533200  0.58379700  1
  S  S13  1  0.16240300  0.69466800  0.41620300  1
