# generated using pymatgen
data_Na4V2C4SO16
_symmetry_space_group_name_H-M   'P 1'
_cell_length_a   10.00972053
_cell_length_b   9.98926192
_cell_length_c   9.80560557
_cell_angle_alpha   60.74359621
_cell_angle_beta   60.53522029
_cell_angle_gamma   58.72118350
_symmetry_Int_Tables_number   1
_chemical_formula_structural   Na4V2C4SO16
_chemical_formula_sum   'Na8 V4 C8 S2 O32'
_cell_volume   692.77347248
_cell_formula_units_Z   2
loop_
 _symmetry_equiv_pos_site_id
 _symmetry_equiv_pos_as_xyz
  1  'x, y, z'
loop_
 _atom_site_type_symbol
 _atom_site_label
 _atom_site_symmetry_multiplicity
 _atom_site_fract_x
 _atom_site_fract_y
 _atom_site_fract_z
 _atom_site_occupancy
  Na  Na0  1  0.29072800  0.70927200  0.70927200  1
  Na  Na1  1  0.70884200  0.29115800  0.70884200  1
  Na  Na2  1  0.95884200  0.54115800  0.95884200  1
  Na  Na3  1  0.54072800  0.95927200  0.95927200  1
  Na  Na4  1  0.70927200  0.29072800  0.29072800  1
  Na  Na5  1  0.29115800  0.70884200  0.29115800  1
  Na  Na6  1  0.54115800  0.95884200  0.54115800  1
  Na  Na7  1  0.95927200  0.54072800  0.54072800  1
  V  V8  1  0.12500000  0.12500000  0.62500000  1
  V  V9  1  0.12500000  0.12500000  0.12500000  1
  V  V10  1  0.12500000  0.62500000  0.12500000  1
  V  V11  1  0.62500000  0.12500000  0.12500000  1
  C  C12  1  0.33267400  0.33567300  0.98494500  1
  C  C13  1  0.91432700  0.91732600  0.90329100  1
  C  C14  1  0.34670900  0.98494500  0.33567300  1
  C  C15  1  0.98494500  0.34670900  0.33267400  1
  C  C16  1  0.26505500  0.90329100  0.91732600  1
  C  C17  1  0.90329100  0.26505500  0.91432700  1
  C  C18  1  0.33567300  0.33267400  0.34670900  1
  C  C19  1  0.91732600  0.91432700  0.26505500  1
  S  S20  1  0.75000000  0.75000000  0.75000000  1
  S  S21  1  0.50000000  0.50000000  0.50000000  1
  O  O22  1  0.30081300  0.48098100  0.98110600  1
  O  O23  1  0.93476100  0.68199800  0.69120500  1
  O  O24  1  0.21846900  0.30754500  0.98867300  1
  O  O25  1  0.94245500  0.03153100  0.76468600  1
  O  O26  1  0.48531400  0.98867300  0.30754500  1
  O  O27  1  0.02683400  0.77111400  0.93024800  1
  O  O28  1  0.69203600  0.69120500  0.68199800  1
  O  O29  1  0.68199800  0.93476100  0.69203600  1
  O  O30  1  0.93024800  0.27180400  0.02683400  1
  O  O31  1  0.98867300  0.48531400  0.21846900  1
  O  O32  1  0.76901900  0.94918700  0.01290000  1
  O  O33  1  0.69120500  0.69203600  0.93476100  1
  O  O34  1  0.23710000  0.98110600  0.48098100  1
  O  O35  1  0.98110600  0.23710000  0.30081300  1
  O  O36  1  0.47888600  0.22316600  0.97819600  1
  O  O37  1  0.27180400  0.93024800  0.77111400  1
  O  O38  1  0.97819600  0.31975200  0.47888600  1
  O  O39  1  0.77111400  0.02683400  0.27180400  1
  O  O40  1  0.26889400  0.01290000  0.94918700  1
  O  O41  1  0.01290000  0.26889400  0.76901900  1
  O  O42  1  0.55879500  0.55796400  0.31523900  1
  O  O43  1  0.48098100  0.30081300  0.23710000  1
  O  O44  1  0.26132700  0.76468600  0.03153100  1
  O  O45  1  0.31975200  0.97819600  0.22316600  1
  O  O46  1  0.56800200  0.31523900  0.55796400  1
  O  O47  1  0.55796400  0.55879500  0.56800200  1
  O  O48  1  0.22316600  0.47888600  0.31975200  1
  O  O49  1  0.76468600  0.26132700  0.94245500  1
  O  O50  1  0.30754500  0.21846900  0.48531400  1
  O  O51  1  0.03153100  0.94245500  0.26132700  1
  O  O52  1  0.31523900  0.56800200  0.55879500  1
  O  O53  1  0.94918700  0.76901900  0.26889400  1
