# generated using pymatgen
data_NbBO4
_symmetry_space_group_name_H-M   'P 1'
_cell_length_a   5.26049758
_cell_length_b   5.26049758
_cell_length_c   5.26049758
_cell_angle_alpha   106.05482738
_cell_angle_beta   106.05482738
_cell_angle_gamma   116.54405774
_symmetry_Int_Tables_number   1
_chemical_formula_structural   NbBO4
_chemical_formula_sum   'Nb2 B2 O8'
_cell_volume   110.76616835
_cell_formula_units_Z   2
loop_
 _symmetry_equiv_pos_site_id
 _symmetry_equiv_pos_as_xyz
  1  'x, y, z'
loop_
 _atom_site_type_symbol
 _atom_site_label
 _atom_site_symmetry_multiplicity
 _atom_site_fract_x
 _atom_site_fract_y
 _atom_site_fract_z
 _atom_site_occupancy
  Nb  Nb0  1  0.00000000  0.00000000  0.00000000  1
  Nb  Nb1  1  0.25000000  0.75000000  0.50000000  1
  B  B2  1  0.50000000  0.50000000  0.00000000  1
  B  B3  1  0.75000000  0.25000000  0.50000000  1
  O  O4  1  0.32494700  0.14812200  0.82317500  1
  O  O5  1  0.75177300  0.07494700  0.67682500  1
  O  O6  1  0.49822700  0.67505300  0.82317500  1
  O  O7  1  0.92505300  0.60187800  0.67682500  1
  O  O8  1  0.92505300  0.24822700  0.32317500  1
  O  O9  1  0.85187800  0.67505300  0.17682500  1
  O  O10  1  0.32494700  0.50177300  0.17682500  1
  O  O11  1  0.39812200  0.07494700  0.32317500  1
