# generated using pymatgen
data_Gd2ReC2
_symmetry_space_group_name_H-M   'P 1'
_cell_length_a   5.19350000
_cell_length_b   6.60652800
_cell_length_c   9.95022500
_cell_angle_alpha   90.00000000
_cell_angle_beta   90.00000000
_cell_angle_gamma   90.00000000
_symmetry_Int_Tables_number   1
_chemical_formula_structural   Gd2ReC2
_chemical_formula_sum   'Gd8 Re4 C8'
_cell_volume   341.40220150
_cell_formula_units_Z   4
loop_
 _symmetry_equiv_pos_site_id
 _symmetry_equiv_pos_as_xyz
  1  'x, y, z'
loop_
 _atom_site_type_symbol
 _atom_site_label
 _atom_site_symmetry_multiplicity
 _atom_site_fract_x
 _atom_site_fract_y
 _atom_site_fract_z
 _atom_site_occupancy
  Gd  Gd0  1  0.25000000  0.47051300  0.28422900  1
  Gd  Gd1  1  0.75000000  0.02948700  0.78422900  1
  Gd  Gd2  1  0.25000000  0.97051300  0.21577100  1
  Gd  Gd3  1  0.75000000  0.52948700  0.71577100  1
  Gd  Gd4  1  0.25000000  0.81642700  0.55359700  1
  Gd  Gd5  1  0.75000000  0.68357300  0.05359700  1
  Gd  Gd6  1  0.25000000  0.31642700  0.94640300  1
  Gd  Gd7  1  0.75000000  0.18357300  0.44640300  1
  Re  Re8  1  0.25000000  0.27606200  0.63633700  1
  Re  Re9  1  0.75000000  0.22393800  0.13633700  1
  Re  Re10  1  0.25000000  0.77606200  0.86366300  1
  Re  Re11  1  0.75000000  0.72393800  0.36366300  1
  C  C12  1  0.25000000  0.04150700  0.75870300  1
  C  C13  1  0.75000000  0.45849300  0.25870300  1
  C  C14  1  0.25000000  0.54150700  0.74129700  1
  C  C15  1  0.75000000  0.95849300  0.24129700  1
  C  C16  1  0.25000000  0.67951200  0.04702500  1
  C  C17  1  0.75000000  0.82048800  0.54702500  1
  C  C18  1  0.25000000  0.17951200  0.45297500  1
  C  C19  1  0.75000000  0.32048800  0.95297500  1
