# generated using pymatgen
data_KRuF6
_symmetry_space_group_name_H-M   'P 1'
_cell_length_a   5.12404981
_cell_length_b   5.12404981
_cell_length_c   5.12405036
_cell_angle_alpha   97.87424599
_cell_angle_beta   97.87424599
_cell_angle_gamma   97.87424569
_symmetry_Int_Tables_number   1
_chemical_formula_structural   KRuF6
_chemical_formula_sum   'K1 Ru1 F6'
_cell_volume   130.33738399
_cell_formula_units_Z   1
loop_
 _symmetry_equiv_pos_site_id
 _symmetry_equiv_pos_as_xyz
  1  'x, y, z'
loop_
 _atom_site_type_symbol
 _atom_site_label
 _atom_site_symmetry_multiplicity
 _atom_site_fract_x
 _atom_site_fract_y
 _atom_site_fract_z
 _atom_site_occupancy
  K  K0  1  0.50000000  0.50000000  0.50000000  1
  Ru  Ru1  1  0.00000000  0.00000000  0.00000000  1
  F  F2  1  0.26314800  0.26314800  0.91991800  1
  F  F3  1  0.91991800  0.26314800  0.26314800  1
  F  F4  1  0.08008200  0.73685200  0.73685200  1
  F  F5  1  0.73685200  0.73685200  0.08008200  1
  F  F6  1  0.73685200  0.08008200  0.73685200  1
  F  F7  1  0.26314800  0.91991800  0.26314800  1
