# generated using pymatgen
data_Mg(AuF4)2
_symmetry_space_group_name_H-M   'P 1'
_cell_length_a   5.82521900
_cell_length_b   5.60729600
_cell_length_c   11.03359765
_cell_angle_alpha   70.43940577
_cell_angle_beta   90.00000000
_cell_angle_gamma   90.00000000
_symmetry_Int_Tables_number   1
_chemical_formula_structural   Mg(AuF4)2
_chemical_formula_sum   'Mg2 Au4 F16'
_cell_volume   339.59908819
_cell_formula_units_Z   2
loop_
 _symmetry_equiv_pos_site_id
 _symmetry_equiv_pos_as_xyz
  1  'x, y, z'
loop_
 _atom_site_type_symbol
 _atom_site_label
 _atom_site_symmetry_multiplicity
 _atom_site_fract_x
 _atom_site_fract_y
 _atom_site_fract_z
 _atom_site_occupancy
  Mg  Mg0  1  0.50000000  0.50000000  0.00000000  1
  Mg  Mg1  1  0.00000000  0.50000000  0.50000000  1
  Au  Au2  1  0.72379200  0.87090200  0.67163900  1
  Au  Au3  1  0.22379200  0.12909800  0.82836100  1
  Au  Au4  1  0.27620800  0.12909800  0.32836100  1
  Au  Au5  1  0.77620800  0.87090200  0.17163900  1
  F  F6  1  0.62505800  0.57445700  0.81785200  1
  F  F7  1  0.12505800  0.42554300  0.68214800  1
  F  F8  1  0.37494200  0.42554300  0.18214800  1
  F  F9  1  0.87494200  0.57445700  0.31785200  1
  F  F10  1  0.68206700  0.17467600  0.02836800  1
  F  F11  1  0.18206700  0.82532400  0.47163200  1
  F  F12  1  0.76989900  0.66304600  0.05612500  1
  F  F13  1  0.26989900  0.33695400  0.44387500  1
  F  F14  1  0.23010100  0.33695400  0.94387500  1
  F  F15  1  0.73010100  0.66304600  0.55612500  1
  F  F16  1  0.78605300  0.07347300  0.28347000  1
  F  F17  1  0.28605300  0.92652700  0.21653000  1
  F  F18  1  0.21394700  0.92652700  0.71653000  1
  F  F19  1  0.71394700  0.07347300  0.78347000  1
  F  F20  1  0.81793300  0.17467600  0.52836800  1
  F  F21  1  0.31793300  0.82532400  0.97163200  1
