# generated using pymatgen
data_Rb4Zr6CCl18
_symmetry_space_group_name_H-M   'P 1'
_cell_length_a   10.33285124
_cell_length_b   10.33285124
_cell_length_c   10.01703386
_cell_angle_alpha   77.27577493
_cell_angle_beta   77.27577493
_cell_angle_gamma   117.51322988
_symmetry_Int_Tables_number   1
_chemical_formula_structural   Rb4Zr6CCl18
_chemical_formula_sum   'Rb4 Zr6 C1 Cl18'
_cell_volume   858.76598564
_cell_formula_units_Z   1
loop_
 _symmetry_equiv_pos_site_id
 _symmetry_equiv_pos_as_xyz
  1  'x, y, z'
loop_
 _atom_site_type_symbol
 _atom_site_label
 _atom_site_symmetry_multiplicity
 _atom_site_fract_x
 _atom_site_fract_y
 _atom_site_fract_z
 _atom_site_occupancy
  Rb  Rb0  1  0.76985700  0.44602800  0.68195800  1
  Rb  Rb1  1  0.55397200  0.23014300  0.31804200  1
  Rb  Rb2  1  0.23014300  0.55397200  0.31804200  1
  Rb  Rb3  1  0.44602800  0.76985700  0.68195800  1
  Zr  Zr4  1  0.12180900  0.12180900  0.14330400  1
  Zr  Zr5  1  0.87819100  0.87819100  0.85669600  1
  Zr  Zr6  1  0.94814000  0.76422400  0.14890300  1
  Zr  Zr7  1  0.23577600  0.05186000  0.85109700  1
  Zr  Zr8  1  0.05186000  0.23577600  0.85109700  1
  Zr  Zr9  1  0.76422400  0.94814000  0.14890300  1
  C  C10  1  0.00000000  0.00000000  0.00000000  1
  Cl  Cl11  1  0.80766600  0.60282100  0.00792200  1
  Cl  Cl12  1  0.39718000  0.19233400  0.99207800  1
  Cl  Cl13  1  0.19233400  0.39718000  0.99207800  1
  Cl  Cl14  1  0.60282000  0.80766600  0.00792200  1
  Cl  Cl15  1  0.20451100  0.79548900  0.00000000  1
  Cl  Cl16  1  0.79548900  0.20451100  0.00000000  1
  Cl  Cl17  1  0.31989300  0.31989300  0.67269500  1
  Cl  Cl18  1  0.68010700  0.68010700  0.32730500  1
  Cl  Cl19  1  0.88806300  0.49353700  0.32401600  1
  Cl  Cl20  1  0.50646300  0.11193700  0.67598400  1
  Cl  Cl21  1  0.11193700  0.50646300  0.67598400  1
  Cl  Cl22  1  0.49353700  0.88806300  0.32401600  1
  Cl  Cl23  1  0.26223000  0.26223000  0.30116000  1
  Cl  Cl24  1  0.73777000  0.73777000  0.69884000  1
  Cl  Cl25  1  0.07782000  0.87315400  0.31998000  1
  Cl  Cl26  1  0.12684600  0.92218000  0.68002000  1
  Cl  Cl27  1  0.92218000  0.12684600  0.68002000  1
  Cl  Cl28  1  0.87315400  0.07782000  0.31998000  1
