# generated using pymatgen
data_Sr2B4Rh5
_symmetry_space_group_name_H-M   'P 1'
_cell_length_a   7.60485498
_cell_length_b   6.31883118
_cell_length_c   5.79067902
_cell_angle_alpha   77.67109411
_cell_angle_beta   54.26552511
_cell_angle_gamma   48.06338078
_symmetry_Int_Tables_number   1
_chemical_formula_structural   Sr2B4Rh5
_chemical_formula_sum   'Sr2 B4 Rh5'
_cell_volume   160.66291693
_cell_formula_units_Z   1
loop_
 _symmetry_equiv_pos_site_id
 _symmetry_equiv_pos_as_xyz
  1  'x, y, z'
loop_
 _atom_site_type_symbol
 _atom_site_label
 _atom_site_symmetry_multiplicity
 _atom_site_fract_x
 _atom_site_fract_y
 _atom_site_fract_z
 _atom_site_occupancy
  Sr  Sr0  1  0.85560200  0.85560200  0.14439800  1
  Sr  Sr1  1  0.14439800  0.14439800  0.85560200  1
  B  B2  1  0.79315000  0.46302900  0.53697100  1
  B  B3  1  0.20685000  0.53697100  0.46302900  1
  B  B4  1  0.53697100  0.20685000  0.79315000  1
  B  B5  1  0.46302900  0.79315000  0.20685000  1
  Rh  Rh6  1  0.50000000  0.50000000  0.50000000  1
  Rh  Rh7  1  0.50000000  0.50000000  0.00000000  1
  Rh  Rh8  1  0.00000000  0.00000000  0.50000000  1
  Rh  Rh9  1  0.75000000  0.75000000  0.75000000  1
  Rh  Rh10  1  0.25000000  0.25000000  0.25000000  1
