# generated using pymatgen
data_K5La4Si4O16F
_symmetry_space_group_name_H-M   'P 1'
_cell_length_a   9.33352328
_cell_length_b   9.33352328
_cell_length_c   9.33352328
_cell_angle_alpha   95.10857521
_cell_angle_beta   95.10857521
_cell_angle_gamma   145.27677978
_symmetry_Int_Tables_number   1
_chemical_formula_structural   K5La4Si4O16F
_chemical_formula_sum   'K5 La4 Si4 O16 F1'
_cell_volume   442.04383153
_cell_formula_units_Z   1
loop_
 _symmetry_equiv_pos_site_id
 _symmetry_equiv_pos_as_xyz
  1  'x, y, z'
loop_
 _atom_site_type_symbol
 _atom_site_label
 _atom_site_symmetry_multiplicity
 _atom_site_fract_x
 _atom_site_fract_y
 _atom_site_fract_z
 _atom_site_occupancy
  K  K0  1  0.60020100  0.09053400  0.69392600  1
  K  K1  1  0.39660800  0.90627600  0.30607400  1
  K  K2  1  0.90946600  0.60339200  0.50966800  1
  K  K3  1  0.09372400  0.39979900  0.49033200  1
  K  K4  1  0.50000000  0.50000000  0.00000000  1
  La  La5  1  0.11096100  0.80601900  0.93470400  1
  La  La6  1  0.87131500  0.17625700  0.06529600  1
  La  La7  1  0.19398100  0.12868500  0.30494200  1
  La  La8  1  0.82374300  0.88903900  0.69505800  1
  Si  Si9  1  0.74931600  0.40147400  0.14434900  1
  Si  Si10  1  0.25712500  0.60496700  0.85565100  1
  Si  Si11  1  0.59852600  0.74287500  0.34784200  1
  Si  Si12  1  0.39503300  0.25068400  0.65215800  1
  O  O13  1  0.95030000  0.70799100  0.16894700  1
  O  O14  1  0.53904400  0.78135300  0.83105300  1
  O  O15  1  0.29200900  0.46095600  0.24230900  1
  O  O16  1  0.21864700  0.04970000  0.75769100  1
  O  O17  1  0.72200600  0.30064900  0.97502100  1
  O  O18  1  0.32562900  0.74698500  0.02497900  1
  O  O19  1  0.69935100  0.67437100  0.42135700  1
  O  O20  1  0.25301500  0.27799400  0.57864300  1
  O  O21  1  0.11987200  0.61102700  0.73821300  1
  O  O22  1  0.87281400  0.38165900  0.26178700  1
  O  O23  1  0.38897300  0.12718600  0.50884500  1
  O  O24  1  0.61834100  0.88012800  0.49115500  1
  O  O25  1  0.05469400  0.30009000  0.84246100  1
  O  O26  1  0.45762900  0.21223300  0.15753900  1
  O  O27  1  0.69991000  0.54237100  0.75460400  1
  O  O28  1  0.78776700  0.94530600  0.24539600  1
  F  F29  1  0.00000000  0.00000000  0.00000000  1
