# generated using pymatgen
data_Lu2(NiB2)3
_symmetry_space_group_name_H-M   'P 1'
_cell_length_a   5.73390770
_cell_length_b   5.73390770
_cell_length_c   3.43014600
_cell_angle_alpha   90.00000000
_cell_angle_beta   90.00000000
_cell_angle_gamma   96.55118068
_symmetry_Int_Tables_number   1
_chemical_formula_structural   Lu2(NiB2)3
_chemical_formula_sum   'Lu2 Ni3 B6'
_cell_volume   112.03891789
_cell_formula_units_Z   1
loop_
 _symmetry_equiv_pos_site_id
 _symmetry_equiv_pos_as_xyz
  1  'x, y, z'
loop_
 _atom_site_type_symbol
 _atom_site_label
 _atom_site_symmetry_multiplicity
 _atom_site_fract_x
 _atom_site_fract_y
 _atom_site_fract_z
 _atom_site_occupancy
  Lu  Lu0  1  0.27540100  0.72459900  0.00000000  1
  Lu  Lu1  1  0.72459900  0.27540100  0.00000000  1
  Ni  Ni2  1  0.77131300  0.77131300  0.00000000  1
  Ni  Ni3  1  0.22868700  0.22868700  0.00000000  1
  Ni  Ni4  1  0.00000000  0.00000000  0.50000000  1
  B  B5  1  0.61187100  0.61187100  0.50000000  1
  B  B6  1  0.38812900  0.38812900  0.50000000  1
  B  B7  1  0.61560300  0.91691000  0.50000000  1
  B  B8  1  0.38439700  0.08309000  0.50000000  1
  B  B9  1  0.91691000  0.61560300  0.50000000  1
  B  B10  1  0.08309000  0.38439700  0.50000000  1
