# generated using pymatgen
data_CsTe
_symmetry_space_group_name_H-M   'P 1'
_cell_length_a   5.10411600
_cell_length_b   6.32335100
_cell_length_c   11.82244500
_cell_angle_alpha   90.00000000
_cell_angle_beta   90.00000000
_cell_angle_gamma   90.00000000
_symmetry_Int_Tables_number   1
_chemical_formula_structural   CsTe
_chemical_formula_sum   'Cs4 Te4'
_cell_volume   381.57079575
_cell_formula_units_Z   4
loop_
 _symmetry_equiv_pos_site_id
 _symmetry_equiv_pos_as_xyz
  1  'x, y, z'
loop_
 _atom_site_type_symbol
 _atom_site_label
 _atom_site_symmetry_multiplicity
 _atom_site_fract_x
 _atom_site_fract_y
 _atom_site_fract_z
 _atom_site_occupancy
  Cs  Cs0  1  0.50000000  0.82200000  0.36420600  1
  Cs  Cs1  1  0.50000000  0.17800000  0.63579400  1
  Cs  Cs2  1  0.50000000  0.32200000  0.13579400  1
  Cs  Cs3  1  0.50000000  0.67800000  0.86420600  1
  Te  Te4  1  0.00000000  0.36470900  0.40464100  1
  Te  Te5  1  0.00000000  0.63529100  0.59535900  1
  Te  Te6  1  0.00000000  0.86470900  0.09535900  1
  Te  Te7  1  0.00000000  0.13529100  0.90464100  1
