# generated using pymatgen
data_KSiBiS4
_symmetry_space_group_name_H-M   'P 1'
_cell_length_a   6.80900200
_cell_length_b   6.55843300
_cell_length_c   17.55955502
_cell_angle_alpha   72.54897951
_cell_angle_beta   90.00000000
_cell_angle_gamma   90.00000000
_symmetry_Int_Tables_number   1
_chemical_formula_structural   KSiBiS4
_chemical_formula_sum   'K4 Si4 Bi4 S16'
_cell_volume   748.05484227
_cell_formula_units_Z   4
loop_
 _symmetry_equiv_pos_site_id
 _symmetry_equiv_pos_as_xyz
  1  'x, y, z'
loop_
 _atom_site_type_symbol
 _atom_site_label
 _atom_site_symmetry_multiplicity
 _atom_site_fract_x
 _atom_site_fract_y
 _atom_site_fract_z
 _atom_site_occupancy
  K  K0  1  0.24978100  0.28166700  0.96443000  1
  K  K1  1  0.74978100  0.71833300  0.53557000  1
  K  K2  1  0.75021900  0.71833300  0.03557000  1
  K  K3  1  0.25021900  0.28166700  0.46443000  1
  Si  Si4  1  0.73517000  0.20569700  0.84218800  1
  Si  Si5  1  0.23517000  0.79430300  0.65781200  1
  Si  Si6  1  0.26483000  0.79430300  0.15781200  1
  Si  Si7  1  0.76483000  0.20569700  0.34218800  1
  Bi  Bi8  1  0.80023700  0.75877700  0.77927400  1
  Bi  Bi9  1  0.30023700  0.24122300  0.72072600  1
  Bi  Bi10  1  0.19976300  0.24122300  0.22072600  1
  Bi  Bi11  1  0.69976300  0.75877700  0.27927400  1
  S  S12  1  0.50097400  0.98305400  0.86602200  1
  S  S13  1  0.00097400  0.01694600  0.63397800  1
  S  S14  1  0.49902600  0.01694600  0.13397800  1
  S  S15  1  0.99902600  0.98305400  0.36602200  1
  S  S16  1  0.74914700  0.41106300  0.91576900  1
  S  S17  1  0.24914700  0.58893700  0.58423100  1
  S  S18  1  0.25085300  0.58893700  0.08423100  1
  S  S19  1  0.75085300  0.41106300  0.41576900  1
  S  S20  1  0.99349500  0.01302200  0.85716500  1
  S  S21  1  0.49349500  0.98697800  0.64283500  1
  S  S22  1  0.00650500  0.98697800  0.14283500  1
  S  S23  1  0.50650500  0.01302200  0.35716500  1
  S  S24  1  0.68721200  0.40265400  0.72079500  1
  S  S25  1  0.18721200  0.59734600  0.77920500  1
  S  S26  1  0.31278800  0.59734600  0.27920500  1
  S  S27  1  0.81278800  0.40265400  0.22079500  1
