# generated using pymatgen
data_BaYbCdSb2
_symmetry_space_group_name_H-M   'P 1'
_cell_length_a   9.73928140
_cell_length_b   9.73928140
_cell_length_c   7.46459800
_cell_angle_alpha   90.00000000
_cell_angle_beta   90.00000000
_cell_angle_gamma   151.60512968
_symmetry_Int_Tables_number   1
_chemical_formula_structural   BaYbCdSb2
_chemical_formula_sum   'Ba2 Yb2 Cd2 Sb4'
_cell_volume   336.70710835
_cell_formula_units_Z   2
loop_
 _symmetry_equiv_pos_site_id
 _symmetry_equiv_pos_as_xyz
  1  'x, y, z'
loop_
 _atom_site_type_symbol
 _atom_site_label
 _atom_site_symmetry_multiplicity
 _atom_site_fract_x
 _atom_site_fract_y
 _atom_site_fract_z
 _atom_site_occupancy
  Ba  Ba0  1  0.69756000  0.30244000  0.52467500  1
  Ba  Ba1  1  0.30244000  0.69756000  0.02467500  1
  Yb  Yb2  1  0.51976700  0.48023300  0.22350100  1
  Yb  Yb3  1  0.48023300  0.51976700  0.72350100  1
  Cd  Cd4  1  0.09322400  0.90677600  0.89363900  1
  Cd  Cd5  1  0.90677600  0.09322400  0.39363900  1
  Sb  Sb6  1  0.05898400  0.94101600  0.50330000  1
  Sb  Sb7  1  0.66603900  0.33396100  0.01074600  1
  Sb  Sb8  1  0.33396100  0.66603900  0.51074600  1
  Sb  Sb9  1  0.94101600  0.05898400  0.00330000  1
