# generated using pymatgen
data_LiGd2Ir
_symmetry_space_group_name_H-M   'P 1'
_cell_length_a   4.96327907
_cell_length_b   4.96759558
_cell_length_c   4.96332751
_cell_angle_alpha   59.90244590
_cell_angle_beta   59.87914156
_cell_angle_gamma   59.76786202
_symmetry_Int_Tables_number   1
_chemical_formula_structural   LiGd2Ir
_chemical_formula_sum   'Li1 Gd2 Ir1'
_cell_volume   86.23603526
_cell_formula_units_Z   1
loop_
 _symmetry_equiv_pos_site_id
 _symmetry_equiv_pos_as_xyz
  1  'x, y, z'
loop_
 _atom_site_type_symbol
 _atom_site_label
 _atom_site_symmetry_multiplicity
 _atom_site_fract_x
 _atom_site_fract_y
 _atom_site_fract_z
 _atom_site_occupancy
  Li  Li0  1  0.75003100  0.75001600  0.74995200  1
  Gd  Gd1  1  0.99971100  0.00007500  0.99985600  1
  Gd  Gd2  1  0.50026200  0.50007900  0.50003300  1
  Ir  Ir3  1  0.24999600  0.24983000  0.25015900  1
