# generated using pymatgen
data_Rb3Cu5O4
_symmetry_space_group_name_H-M   'P 1'
_cell_length_a   7.47645300
_cell_length_b   9.95958300
_cell_length_c   14.48867154
_cell_angle_alpha   73.45080673
_cell_angle_beta   90.00000000
_cell_angle_gamma   90.00000000
_symmetry_Int_Tables_number   1
_chemical_formula_structural   Rb3Cu5O4
_chemical_formula_sum   'Rb12 Cu20 O16'
_cell_volume   1034.16936382
_cell_formula_units_Z   4
loop_
 _symmetry_equiv_pos_site_id
 _symmetry_equiv_pos_as_xyz
  1  'x, y, z'
loop_
 _atom_site_type_symbol
 _atom_site_label
 _atom_site_symmetry_multiplicity
 _atom_site_fract_x
 _atom_site_fract_y
 _atom_site_fract_z
 _atom_site_occupancy
  Rb  Rb0  1  0.83394800  0.39842600  0.09285600  1
  Rb  Rb1  1  0.33394800  0.60157400  0.40714400  1
  Rb  Rb2  1  0.16605200  0.60157400  0.90714400  1
  Rb  Rb3  1  0.66605200  0.39842600  0.59285600  1
  Rb  Rb4  1  0.21233000  0.22777500  0.58239600  1
  Rb  Rb5  1  0.71233000  0.77222500  0.91760400  1
  Rb  Rb6  1  0.78767000  0.77222500  0.41760400  1
  Rb  Rb7  1  0.28767000  0.22777500  0.08239600  1
  Rb  Rb8  1  0.91243300  0.17541500  0.89370700  1
  Rb  Rb9  1  0.41243300  0.82458500  0.60629300  1
  Rb  Rb10  1  0.08756700  0.82458500  0.10629300  1
  Rb  Rb11  1  0.58756700  0.17541500  0.39370700  1
  Cu  Cu12  1  0.58274500  0.43538700  0.87761400  1
  Cu  Cu13  1  0.20223500  0.96081500  0.37875300  1
  Cu  Cu14  1  0.79776500  0.03918500  0.62124700  1
  Cu  Cu15  1  0.29776500  0.96081500  0.87875300  1
  Cu  Cu16  1  0.05848000  0.20106600  0.36393900  1
  Cu  Cu17  1  0.55848000  0.79893400  0.13606100  1
  Cu  Cu18  1  0.94152000  0.79893400  0.63606100  1
  Cu  Cu19  1  0.44152000  0.20106600  0.86393900  1
  Cu  Cu20  1  0.17009700  0.43718000  0.24211100  1
  Cu  Cu21  1  0.67009700  0.56282000  0.25788900  1
  Cu  Cu22  1  0.82990300  0.56282000  0.75788900  1
  Cu  Cu23  1  0.32990300  0.43718000  0.74211100  1
  Cu  Cu24  1  0.95429800  0.06794600  0.23310400  1
  Cu  Cu25  1  0.45429800  0.93205400  0.26689600  1
  Cu  Cu26  1  0.04570200  0.93205400  0.76689600  1
  Cu  Cu27  1  0.54570200  0.06794600  0.73310400  1
  Cu  Cu28  1  0.41725500  0.56461300  0.12238600  1
  Cu  Cu29  1  0.91725500  0.43538700  0.37761400  1
  Cu  Cu30  1  0.70223500  0.03918500  0.12124700  1
  Cu  Cu31  1  0.08274500  0.56461300  0.62238600  1
  O  O32  1  0.80986000  0.49610600  0.88881300  1
  O  O33  1  0.30986000  0.50389400  0.61118700  1
  O  O34  1  0.19014000  0.50389400  0.11118700  1
  O  O35  1  0.69014000  0.49610600  0.38881300  1
  O  O36  1  0.53195300  0.02769200  0.86551500  1
  O  O37  1  0.03195300  0.97230800  0.63448500  1
  O  O38  1  0.46804700  0.97230800  0.13448500  1
  O  O39  1  0.96804700  0.02769200  0.36551500  1
  O  O40  1  0.65035900  0.63107400  0.12417900  1
  O  O41  1  0.15035900  0.36892600  0.37582100  1
  O  O42  1  0.34964100  0.36892600  0.87582100  1
  O  O43  1  0.84964100  0.63107400  0.62417900  1
  O  O44  1  0.93143000  0.10707200  0.10188900  1
  O  O45  1  0.43143000  0.89292800  0.39811100  1
  O  O46  1  0.06857000  0.89292800  0.89811100  1
  O  O47  1  0.56857000  0.10707200  0.60188900  1
