# generated using pymatgen
data_MnIr3
_symmetry_space_group_name_H-M   'P 1'
_cell_length_a   5.45187007
_cell_length_b   5.45187007
_cell_length_c   4.33290800
_cell_angle_alpha   90.00000000
_cell_angle_beta   90.00000000
_cell_angle_gamma   120.00000086
_symmetry_Int_Tables_number   1
_chemical_formula_structural   MnIr3
_chemical_formula_sum   'Mn2 Ir6'
_cell_volume   111.53241090
_cell_formula_units_Z   2
loop_
 _symmetry_equiv_pos_site_id
 _symmetry_equiv_pos_as_xyz
  1  'x, y, z'
loop_
 _atom_site_type_symbol
 _atom_site_label
 _atom_site_symmetry_multiplicity
 _atom_site_fract_x
 _atom_site_fract_y
 _atom_site_fract_z
 _atom_site_occupancy
  Mn  Mn0  1  0.33333300  0.66666700  0.75000000  1
  Mn  Mn1  1  0.66666700  0.33333300  0.25000000  1
  Ir  Ir2  1  0.16889200  0.33778500  0.25000000  1
  Ir  Ir3  1  0.66221500  0.83110800  0.25000000  1
  Ir  Ir4  1  0.16889200  0.83110800  0.25000000  1
  Ir  Ir5  1  0.83110800  0.66221500  0.75000000  1
  Ir  Ir6  1  0.33778500  0.16889200  0.75000000  1
  Ir  Ir7  1  0.83110800  0.16889200  0.75000000  1
