# generated using pymatgen
data_KNaTe
_symmetry_space_group_name_H-M   'P 1'
_cell_length_a   5.15114600
_cell_length_b   8.64682500
_cell_length_c   9.38934000
_cell_angle_alpha   90.00000000
_cell_angle_beta   90.00000000
_cell_angle_gamma   90.00000000
_symmetry_Int_Tables_number   1
_chemical_formula_structural   KNaTe
_chemical_formula_sum   'K4 Na4 Te4'
_cell_volume   418.21113763
_cell_formula_units_Z   4
loop_
 _symmetry_equiv_pos_site_id
 _symmetry_equiv_pos_as_xyz
  1  'x, y, z'
loop_
 _atom_site_type_symbol
 _atom_site_label
 _atom_site_symmetry_multiplicity
 _atom_site_fract_x
 _atom_site_fract_y
 _atom_site_fract_z
 _atom_site_occupancy
  K  K0  1  0.75000000  0.48522200  0.31543200  1
  K  K1  1  0.25000000  0.01477800  0.81543200  1
  K  K2  1  0.75000000  0.98522200  0.18456800  1
  K  K3  1  0.25000000  0.51477800  0.68456800  1
  Na  Na4  1  0.25000000  0.64481600  0.07272600  1
  Na  Na5  1  0.25000000  0.14481600  0.42727400  1
  Na  Na6  1  0.75000000  0.35518400  0.92727400  1
  Na  Na7  1  0.75000000  0.85518400  0.57272600  1
  Te  Te8  1  0.25000000  0.77695300  0.39178500  1
  Te  Te9  1  0.25000000  0.27695300  0.10821500  1
  Te  Te10  1  0.75000000  0.72304700  0.89178500  1
  Te  Te11  1  0.75000000  0.22304700  0.60821500  1
