# generated using pymatgen
data_Ho2Cr2C3
_symmetry_space_group_name_H-M   'P 1'
_cell_length_a   5.47934319
_cell_length_b   5.47934319
_cell_length_c   5.55061461
_cell_angle_alpha   74.81141339
_cell_angle_beta   74.81141339
_cell_angle_gamma   35.65890390
_symmetry_Int_Tables_number   1
_chemical_formula_structural   Ho2Cr2C3
_chemical_formula_sum   'Ho2 Cr2 C3'
_cell_volume   93.39682122
_cell_formula_units_Z   1
loop_
 _symmetry_equiv_pos_site_id
 _symmetry_equiv_pos_as_xyz
  1  'x, y, z'
loop_
 _atom_site_type_symbol
 _atom_site_label
 _atom_site_symmetry_multiplicity
 _atom_site_fract_x
 _atom_site_fract_y
 _atom_site_fract_z
 _atom_site_occupancy
  Ho  Ho0  1  0.60647500  0.60647500  0.18345000  1
  Ho  Ho1  1  0.39352500  0.39352500  0.81655000  1
  Cr  Cr2  1  0.84363600  0.84363600  0.38954200  1
  Cr  Cr3  1  0.15636400  0.15636400  0.61045800  1
  C  C4  1  0.28396700  0.28396700  0.26844200  1
  C  C5  1  0.71603300  0.71603300  0.73155800  1
  C  C6  1  0.00000000  0.00000000  0.50000000  1
