# generated using pymatgen
data_KPAuSe3
_symmetry_space_group_name_H-M   'P 1'
_cell_length_a   7.23959143
_cell_length_b   7.23959143
_cell_length_c   8.24099527
_cell_angle_alpha   69.06884912
_cell_angle_beta   69.06884912
_cell_angle_gamma   61.50985297
_symmetry_Int_Tables_number   1
_chemical_formula_structural   KPAuSe3
_chemical_formula_sum   'K2 P2 Au2 Se6'
_cell_volume   345.26148026
_cell_formula_units_Z   2
loop_
 _symmetry_equiv_pos_site_id
 _symmetry_equiv_pos_as_xyz
  1  'x, y, z'
loop_
 _atom_site_type_symbol
 _atom_site_label
 _atom_site_symmetry_multiplicity
 _atom_site_fract_x
 _atom_site_fract_y
 _atom_site_fract_z
 _atom_site_occupancy
  K  K0  1  0.29818100  0.29818100  0.74511200  1
  K  K1  1  0.70181900  0.70181900  0.25488800  1
  P  P2  1  0.97569800  0.97569800  0.64999900  1
  P  P3  1  0.02430200  0.02430200  0.35000100  1
  Au  Au4  1  0.74308500  0.25691500  0.00000000  1
  Au  Au5  1  0.25691500  0.74308500  0.00000000  1
  Se  Se6  1  0.78603400  0.78603400  0.79797100  1
  Se  Se7  1  0.82187400  0.32279800  0.67514600  1
  Se  Se8  1  0.32279800  0.82187400  0.67514600  1
  Se  Se9  1  0.67720200  0.17812600  0.32485400  1
  Se  Se10  1  0.17812600  0.67720200  0.32485400  1
  Se  Se11  1  0.21396600  0.21396600  0.20202900  1
