# generated using pymatgen
data_LiGaGeO4
_symmetry_space_group_name_H-M   'P 1'
_cell_length_a   8.76076146
_cell_length_b   8.76076146
_cell_length_c   8.76076192
_cell_angle_alpha   107.84939263
_cell_angle_beta   107.84939263
_cell_angle_gamma   107.84939517
_symmetry_Int_Tables_number   1
_chemical_formula_structural   LiGaGeO4
_chemical_formula_sum   'Li6 Ga6 Ge6 O24'
_cell_volume   546.48449837
_cell_formula_units_Z   6
loop_
 _symmetry_equiv_pos_site_id
 _symmetry_equiv_pos_as_xyz
  1  'x, y, z'
loop_
 _atom_site_type_symbol
 _atom_site_label
 _atom_site_symmetry_multiplicity
 _atom_site_fract_x
 _atom_site_fract_y
 _atom_site_fract_z
 _atom_site_occupancy
  Li  Li0  1  0.93623500  0.53535100  0.76675300  1
  Li  Li1  1  0.76675300  0.93623500  0.53535100  1
  Li  Li2  1  0.53535100  0.76675300  0.93623500  1
  Li  Li3  1  0.06376500  0.46464900  0.23324700  1
  Li  Li4  1  0.23324700  0.06376500  0.46464900  1
  Li  Li5  1  0.46464900  0.23324700  0.06376500  1
  Ga  Ga6  1  0.61460900  0.20839500  0.43216300  1
  Ga  Ga7  1  0.20839500  0.43216300  0.61460900  1
  Ga  Ga8  1  0.38539100  0.79160500  0.56783700  1
  Ga  Ga9  1  0.56783700  0.38539100  0.79160500  1
  Ga  Ga10  1  0.79160500  0.56783700  0.38539100  1
  Ga  Ga11  1  0.43216300  0.61460900  0.20839500  1
  Ge  Ge12  1  0.10438900  0.27509800  0.86662700  1
  Ge  Ge13  1  0.86662700  0.10438900  0.27509800  1
  Ge  Ge14  1  0.72490200  0.13337300  0.89561100  1
  Ge  Ge15  1  0.89561100  0.72490200  0.13337300  1
  Ge  Ge16  1  0.13337300  0.89561100  0.72490200  1
  Ge  Ge17  1  0.27509800  0.86662700  0.10438900  1
  O  O18  1  0.33239900  0.30105500  0.64673500  1
  O  O19  1  0.96074200  0.67812500  0.62951600  1
  O  O20  1  0.67812500  0.62951600  0.96074200  1
  O  O21  1  0.62951600  0.96074200  0.67812500  1
  O  O22  1  0.03925800  0.32187500  0.37048400  1
  O  O23  1  0.32187500  0.37048400  0.03925800  1
  O  O24  1  0.37048400  0.03925800  0.32187500  1
  O  O25  1  0.64673500  0.33239900  0.30105500  1
  O  O26  1  0.92745100  0.60432800  0.25724600  1
  O  O27  1  0.30105500  0.64673500  0.33239900  1
  O  O28  1  0.35326500  0.66760100  0.69894500  1
  O  O29  1  0.66760100  0.69894500  0.35326500  1
  O  O30  1  0.07254900  0.39567200  0.74275400  1
  O  O31  1  0.74275400  0.07254900  0.39567200  1
  O  O32  1  0.39567200  0.74275400  0.07254900  1
  O  O33  1  0.04275100  0.72323800  0.02560200  1
  O  O34  1  0.25724600  0.92745100  0.60432800  1
  O  O35  1  0.60432800  0.25724600  0.92745100  1
  O  O36  1  0.27676200  0.97439800  0.95724900  1
  O  O37  1  0.02560200  0.04275100  0.72323800  1
  O  O38  1  0.72323800  0.02560200  0.04275100  1
  O  O39  1  0.95724900  0.27676200  0.97439800  1
  O  O40  1  0.97439800  0.95724900  0.27676200  1
  O  O41  1  0.69894500  0.35326500  0.66760100  1
