# generated using pymatgen
data_RbSrCO3F
_symmetry_space_group_name_H-M   'P 1'
_cell_length_a   5.37484448
_cell_length_b   5.37484448
_cell_length_c   4.86527200
_cell_angle_alpha   90.00000000
_cell_angle_beta   90.00000000
_cell_angle_gamma   120.00000591
_symmetry_Int_Tables_number   1
_chemical_formula_structural   RbSrCO3F
_chemical_formula_sum   'Rb1 Sr1 C1 O3 F1'
_cell_volume   121.72212795
_cell_formula_units_Z   1
loop_
 _symmetry_equiv_pos_site_id
 _symmetry_equiv_pos_as_xyz
  1  'x, y, z'
loop_
 _atom_site_type_symbol
 _atom_site_label
 _atom_site_symmetry_multiplicity
 _atom_site_fract_x
 _atom_site_fract_y
 _atom_site_fract_z
 _atom_site_occupancy
  Rb  Rb0  1  0.66666700  0.33333300  0.00000000  1
  Sr  Sr1  1  0.00000000  0.00000000  0.50000000  1
  C  C2  1  0.33333300  0.66666700  0.50000000  1
  O  O3  1  0.47335200  0.94670300  0.50000000  1
  O  O4  1  0.47335200  0.52664800  0.50000000  1
  O  O5  1  0.05329700  0.52664800  0.50000000  1
  F  F6  1  0.00000000  0.00000000  0.00000000  1
