# generated using pymatgen
data_Na4CdP2
_symmetry_space_group_name_H-M   'P 1'
_cell_length_a   9.07984148
_cell_length_b   9.07984148
_cell_length_c   9.07984169
_cell_angle_alpha   32.19682811
_cell_angle_beta   32.19682811
_cell_angle_gamma   32.19683312
_symmetry_Int_Tables_number   1
_chemical_formula_structural   Na4CdP2
_chemical_formula_sum   'Na4 Cd1 P2'
_cell_volume   188.88637336
_cell_formula_units_Z   1
loop_
 _symmetry_equiv_pos_site_id
 _symmetry_equiv_pos_as_xyz
  1  'x, y, z'
loop_
 _atom_site_type_symbol
 _atom_site_label
 _atom_site_symmetry_multiplicity
 _atom_site_fract_x
 _atom_site_fract_y
 _atom_site_fract_z
 _atom_site_occupancy
  Na  Na0  1  0.79309000  0.79309000  0.79309000  1
  Na  Na1  1  0.59310500  0.59310600  0.59310600  1
  Na  Na2  1  0.20691000  0.20691000  0.20691000  1
  Na  Na3  1  0.40689400  0.40689500  0.40689500  1
  Cd  Cd4  1  0.00000000  0.00000000  0.00000000  1
  P  P5  1  0.09390200  0.09390200  0.09390200  1
  P  P6  1  0.90609800  0.90609800  0.90609800  1
