# generated using pymatgen
data_UP3
_symmetry_space_group_name_H-M   'P 1'
_cell_length_a   5.40768424
_cell_length_b   5.40768424
_cell_length_c   5.23556800
_cell_angle_alpha   90.00000000
_cell_angle_beta   90.00000000
_cell_angle_gamma   120.00000297
_symmetry_Int_Tables_number   1
_chemical_formula_structural   UP3
_chemical_formula_sum   'U2 P6'
_cell_volume   132.59192424
_cell_formula_units_Z   2
loop_
 _symmetry_equiv_pos_site_id
 _symmetry_equiv_pos_as_xyz
  1  'x, y, z'
loop_
 _atom_site_type_symbol
 _atom_site_label
 _atom_site_symmetry_multiplicity
 _atom_site_fract_x
 _atom_site_fract_y
 _atom_site_fract_z
 _atom_site_occupancy
  U  U0  1  0.33333300  0.66666700  0.75000000  1
  U  U1  1  0.66666700  0.33333300  0.25000000  1
  P  P2  1  0.18198300  0.36396700  0.25000000  1
  P  P3  1  0.63603300  0.81801700  0.25000000  1
  P  P4  1  0.18198300  0.81801700  0.25000000  1
  P  P5  1  0.81801700  0.63603300  0.75000000  1
  P  P6  1  0.36396700  0.18198300  0.75000000  1
  P  P7  1  0.81801700  0.18198300  0.75000000  1
