# generated using pymatgen
data_La10Se19
_symmetry_space_group_name_H-M   'P 1'
_cell_length_a   9.50443800
_cell_length_b   9.50443800
_cell_length_c   17.22101800
_cell_angle_alpha   90.00000000
_cell_angle_beta   90.00000000
_cell_angle_gamma   90.00000000
_symmetry_Int_Tables_number   1
_chemical_formula_structural   La10Se19
_chemical_formula_sum   'La20 Se38'
_cell_volume   1555.64932436
_cell_formula_units_Z   2
loop_
 _symmetry_equiv_pos_site_id
 _symmetry_equiv_pos_as_xyz
  1  'x, y, z'
loop_
 _atom_site_type_symbol
 _atom_site_label
 _atom_site_symmetry_multiplicity
 _atom_site_fract_x
 _atom_site_fract_y
 _atom_site_fract_z
 _atom_site_occupancy
  La  La0  1  0.00000000  0.50000000  0.86563800  1
  La  La1  1  0.00000000  0.50000000  0.36563800  1
  La  La2  1  0.50000000  0.00000000  0.63436200  1
  La  La3  1  0.50000000  0.00000000  0.13436200  1
  La  La4  1  0.30350300  0.39871700  0.64611500  1
  La  La5  1  0.10128300  0.80350300  0.14611500  1
  La  La6  1  0.89871700  0.19649700  0.14611500  1
  La  La7  1  0.69649700  0.60128300  0.64611500  1
  La  La8  1  0.19649700  0.10128300  0.85388500  1
  La  La9  1  0.39871700  0.69649700  0.35388500  1
  La  La10  1  0.60128300  0.30350300  0.35388500  1
  La  La11  1  0.80350300  0.89871700  0.85388500  1
  La  La12  1  0.20616400  0.09691000  0.36969100  1
  La  La13  1  0.40309000  0.70616400  0.86969100  1
  La  La14  1  0.59691000  0.29383600  0.86969100  1
  La  La15  1  0.79383600  0.90309000  0.36969100  1
  La  La16  1  0.29383600  0.40309000  0.13030900  1
  La  La17  1  0.09691000  0.79383600  0.63030900  1
  La  La18  1  0.90309000  0.20616400  0.63030900  1
  La  La19  1  0.70616400  0.59691000  0.13030900  1
  Se  Se20  1  0.50000000  0.00000000  0.81591300  1
  Se  Se21  1  0.50000000  0.00000000  0.31591300  1
  Se  Se22  1  0.00000000  0.50000000  0.68408700  1
  Se  Se23  1  0.00000000  0.50000000  0.18408700  1
  Se  Se24  1  0.60085800  0.30247400  0.68611500  1
  Se  Se25  1  0.19752600  0.10085800  0.18611500  1
  Se  Se26  1  0.80247400  0.89914200  0.18611500  1
  Se  Se27  1  0.39914200  0.69752600  0.68611500  1
  Se  Se28  1  0.89914200  0.19752600  0.81388500  1
  Se  Se29  1  0.30247400  0.39914200  0.31388500  1
  Se  Se30  1  0.69752600  0.60085800  0.31388500  1
  Se  Se31  1  0.10085800  0.80247400  0.81388500  1
  Se  Se32  1  0.20156200  0.09786400  0.67675900  1
  Se  Se33  1  0.40213600  0.70156200  0.17675900  1
  Se  Se34  1  0.59786400  0.29843800  0.17675900  1
  Se  Se35  1  0.79843800  0.90213600  0.67675900  1
  Se  Se36  1  0.29843800  0.40213600  0.82324100  1
  Se  Se37  1  0.09786400  0.79843800  0.32324100  1
  Se  Se38  1  0.90213600  0.20156200  0.32324100  1
  Se  Se39  1  0.70156200  0.59786400  0.82324100  1
  Se  Se40  1  0.63570000  0.81902800  0.99899200  1
  Se  Se41  1  0.68097200  0.13570000  0.49899200  1
  Se  Se42  1  0.31902800  0.86430000  0.49899200  1
  Se  Se43  1  0.36430000  0.18097200  0.99899200  1
  Se  Se44  1  0.86430000  0.68097200  0.50100800  1
  Se  Se45  1  0.81902800  0.36430000  0.00100800  1
  Se  Se46  1  0.18097200  0.63570000  0.00100800  1
  Se  Se47  1  0.13570000  0.31902800  0.50100800  1
  Se  Se48  1  0.72083700  0.07523800  0.00040200  1
  Se  Se49  1  0.42476200  0.22083700  0.50040200  1
  Se  Se50  1  0.57523800  0.77916300  0.50040200  1
  Se  Se51  1  0.27916300  0.92476200  0.00040200  1
  Se  Se52  1  0.77916300  0.42476200  0.49959800  1
  Se  Se53  1  0.07523800  0.27916300  0.99959800  1
  Se  Se54  1  0.92476200  0.72083700  0.99959800  1
  Se  Se55  1  0.22083700  0.57523800  0.49959800  1
  Se  Se56  1  0.50000000  0.50000000  0.00000000  1
  Se  Se57  1  0.00000000  0.00000000  0.50000000  1
