# generated using pymatgen
data_KN3
_symmetry_space_group_name_H-M   'P 1'
_cell_length_a   5.71395023
_cell_length_b   5.71395023
_cell_length_c   5.71395023
_cell_angle_alpha   113.97111950
_cell_angle_beta   113.97111950
_cell_angle_gamma   100.80387689
_symmetry_Int_Tables_number   1
_chemical_formula_structural   KN3
_chemical_formula_sum   'K2 N6'
_cell_volume   141.19994353
_cell_formula_units_Z   2
loop_
 _symmetry_equiv_pos_site_id
 _symmetry_equiv_pos_as_xyz
  1  'x, y, z'
loop_
 _atom_site_type_symbol
 _atom_site_label
 _atom_site_symmetry_multiplicity
 _atom_site_fract_x
 _atom_site_fract_y
 _atom_site_fract_z
 _atom_site_occupancy
  K  K0  1  0.75000000  0.75000000  0.00000000  1
  K  K1  1  0.25000000  0.25000000  0.00000000  1
  N  N2  1  0.00000000  0.50000000  0.50000000  1
  N  N3  1  0.50000000  0.00000000  0.50000000  1
  N  N4  1  0.13488700  0.63488700  0.76977400  1
  N  N5  1  0.86511300  0.36511300  0.23022600  1
  N  N6  1  0.63488700  0.86511300  0.50000000  1
  N  N7  1  0.36511300  0.13488700  0.50000000  1
