# generated using pymatgen
data_KNaPrTaO5
_symmetry_space_group_name_H-M   'P 1'
_cell_length_a   5.81810100
_cell_length_b   5.81810100
_cell_length_c   8.33948800
_cell_angle_alpha   90.00000000
_cell_angle_beta   90.00000000
_cell_angle_gamma   90.00000000
_symmetry_Int_Tables_number   1
_chemical_formula_structural   KNaPrTaO5
_chemical_formula_sum   'K2 Na2 Pr2 Ta2 O10'
_cell_volume   282.29416436
_cell_formula_units_Z   2
loop_
 _symmetry_equiv_pos_site_id
 _symmetry_equiv_pos_as_xyz
  1  'x, y, z'
loop_
 _atom_site_type_symbol
 _atom_site_label
 _atom_site_symmetry_multiplicity
 _atom_site_fract_x
 _atom_site_fract_y
 _atom_site_fract_z
 _atom_site_occupancy
  K  K0  1  0.00000000  0.00000000  0.00000000  1
  K  K1  1  0.50000000  0.50000000  0.00000000  1
  Na  Na2  1  0.00000000  0.50000000  0.24089800  1
  Na  Na3  1  0.50000000  0.00000000  0.75910200  1
  Pr  Pr4  1  0.00000000  0.00000000  0.50000000  1
  Pr  Pr5  1  0.50000000  0.50000000  0.50000000  1
  Ta  Ta6  1  0.50000000  0.00000000  0.25542600  1
  Ta  Ta7  1  0.00000000  0.50000000  0.74457400  1
  O  O8  1  0.50000000  0.00000000  0.03279400  1
  O  O9  1  0.27078500  0.77078500  0.32613000  1
  O  O10  1  0.72921500  0.77078500  0.32613000  1
  O  O11  1  0.27078500  0.22921500  0.32613000  1
  O  O12  1  0.72921500  0.22921500  0.32613000  1
  O  O13  1  0.77078500  0.27078500  0.67387000  1
  O  O14  1  0.22921500  0.27078500  0.67387000  1
  O  O15  1  0.77078500  0.72921500  0.67387000  1
  O  O16  1  0.22921500  0.72921500  0.67387000  1
  O  O17  1  0.00000000  0.50000000  0.96720600  1
