# generated using pymatgen
data_Pr3AgGeS7
_symmetry_space_group_name_H-M   'P 1'
_cell_length_a   10.37396592
_cell_length_b   10.37396592
_cell_length_c   5.88615500
_cell_angle_alpha   90.00000000
_cell_angle_beta   90.00000000
_cell_angle_gamma   119.99999948
_symmetry_Int_Tables_number   1
_chemical_formula_structural   Pr3AgGeS7
_chemical_formula_sum   'Pr6 Ag2 Ge2 S14'
_cell_volume   548.59514762
_cell_formula_units_Z   2
loop_
 _symmetry_equiv_pos_site_id
 _symmetry_equiv_pos_as_xyz
  1  'x, y, z'
loop_
 _atom_site_type_symbol
 _atom_site_label
 _atom_site_symmetry_multiplicity
 _atom_site_fract_x
 _atom_site_fract_y
 _atom_site_fract_z
 _atom_site_occupancy
  Pr  Pr0  1  0.12994300  0.35978900  0.25408700  1
  Pr  Pr1  1  0.87005700  0.64021100  0.75408700  1
  Pr  Pr2  1  0.64021100  0.77015400  0.25408700  1
  Pr  Pr3  1  0.22984600  0.87005700  0.25408700  1
  Pr  Pr4  1  0.77015400  0.12994300  0.75408700  1
  Pr  Pr5  1  0.35978900  0.22984600  0.75408700  1
  Ag  Ag6  1  0.00000000  0.00000000  0.31431900  1
  Ag  Ag7  1  0.00000000  0.00000000  0.81431900  1
  Ge  Ge8  1  0.33333300  0.66666700  0.67158900  1
  Ge  Ge9  1  0.66666700  0.33333300  0.17158900  1
  S  S10  1  0.33333300  0.66666700  0.04699000  1
  S  S11  1  0.66666700  0.33333300  0.54699000  1
  S  S12  1  0.41595900  0.52266300  0.51748700  1
  S  S13  1  0.58404100  0.47733700  0.01748700  1
  S  S14  1  0.47733700  0.89329600  0.51748700  1
  S  S15  1  0.10670400  0.58404100  0.51748700  1
  S  S16  1  0.89329600  0.41595900  0.01748700  1
  S  S17  1  0.52266300  0.10670400  0.01748700  1
  S  S18  1  0.09818300  0.26964200  0.77443500  1
  S  S19  1  0.90181700  0.73035800  0.27443500  1
  S  S20  1  0.73035800  0.82854100  0.77443500  1
  S  S21  1  0.17145900  0.90181700  0.77443500  1
  S  S22  1  0.82854100  0.09818300  0.27443500  1
  S  S23  1  0.26964200  0.17145900  0.27443500  1
