# generated using pymatgen
data_Rb2NbF6
_symmetry_space_group_name_H-M   'P 1'
_cell_length_a   6.29812454
_cell_length_b   6.29812454
_cell_length_c   4.76619500
_cell_angle_alpha   90.00000000
_cell_angle_beta   90.00000000
_cell_angle_gamma   120.00000564
_symmetry_Int_Tables_number   1
_chemical_formula_structural   Rb2NbF6
_chemical_formula_sum   'Rb2 Nb1 F6'
_cell_volume   163.72873322
_cell_formula_units_Z   1
loop_
 _symmetry_equiv_pos_site_id
 _symmetry_equiv_pos_as_xyz
  1  'x, y, z'
loop_
 _atom_site_type_symbol
 _atom_site_label
 _atom_site_symmetry_multiplicity
 _atom_site_fract_x
 _atom_site_fract_y
 _atom_site_fract_z
 _atom_site_occupancy
  Rb  Rb0  1  0.33333300  0.66666700  0.69879200  1
  Rb  Rb1  1  0.66666700  0.33333300  0.30120800  1
  Nb  Nb2  1  0.00000000  0.00000000  0.00000000  1
  F  F3  1  0.84093900  0.15906100  0.78306100  1
  F  F4  1  0.84093900  0.68187800  0.78306100  1
  F  F5  1  0.31812200  0.15906100  0.78306100  1
  F  F6  1  0.15906100  0.84093900  0.21693900  1
  F  F7  1  0.15906100  0.31812200  0.21693900  1
  F  F8  1  0.68187800  0.84093900  0.21693900  1
