# generated using pymatgen
data_AlInSe3
_symmetry_space_group_name_H-M   'P 1'
_cell_length_a   7.10854787
_cell_length_b   7.10854787
_cell_length_c   19.01738800
_cell_angle_alpha   90.00000000
_cell_angle_beta   90.00000000
_cell_angle_gamma   119.99999877
_symmetry_Int_Tables_number   1
_chemical_formula_structural   AlInSe3
_chemical_formula_sum   'Al6 In6 Se18'
_cell_volume   832.22985004
_cell_formula_units_Z   6
loop_
 _symmetry_equiv_pos_site_id
 _symmetry_equiv_pos_as_xyz
  1  'x, y, z'
loop_
 _atom_site_type_symbol
 _atom_site_label
 _atom_site_symmetry_multiplicity
 _atom_site_fract_x
 _atom_site_fract_y
 _atom_site_fract_z
 _atom_site_occupancy
  Al  Al0  1  0.32625200  0.01444100  0.19131800  1
  Al  Al1  1  0.67374800  0.98555900  0.69131800  1
  Al  Al2  1  0.98555900  0.31181100  0.52465200  1
  Al  Al3  1  0.68818900  0.67374800  0.85798500  1
  Al  Al4  1  0.31181100  0.32625200  0.35798500  1
  Al  Al5  1  0.01444100  0.68818900  0.02465200  1
  In  In6  1  0.99118000  0.33053300  0.16311800  1
  In  In7  1  0.00882000  0.66946700  0.66311800  1
  In  In8  1  0.66946700  0.66064700  0.49645100  1
  In  In9  1  0.33935300  0.00882000  0.82978500  1
  In  In10  1  0.66064700  0.99118000  0.32978500  1
  In  In11  1  0.33053300  0.33935300  0.99645100  1
  Se  Se12  1  0.37195400  0.04626700  0.67847400  1
  Se  Se13  1  0.62804600  0.95373300  0.17847400  1
  Se  Se14  1  0.95373300  0.32568600  0.01180700  1
  Se  Se15  1  0.67431400  0.62804600  0.34514100  1
  Se  Se16  1  0.32568600  0.37195400  0.84514100  1
  Se  Se17  1  0.04626700  0.67431400  0.51180700  1
  Se  Se18  1  0.27730400  0.98360600  0.31909300  1
  Se  Se19  1  0.72269600  0.01639400  0.81909300  1
  Se  Se20  1  0.01639400  0.29369800  0.65242600  1
  Se  Se21  1  0.70630200  0.72269600  0.98576000  1
  Se  Se22  1  0.29369800  0.27730400  0.48576000  1
  Se  Se23  1  0.98360600  0.70630200  0.15242600  1
  Se  Se24  1  0.02122700  0.37188400  0.31399700  1
  Se  Se25  1  0.97877300  0.62811600  0.81399700  1
  Se  Se26  1  0.62811600  0.64934300  0.64733000  1
  Se  Se27  1  0.35065700  0.97877300  0.98066400  1
  Se  Se28  1  0.64934300  0.02122700  0.48066400  1
  Se  Se29  1  0.37188400  0.35065700  0.14733000  1
