# generated using pymatgen
data_K(MoS)3
_symmetry_space_group_name_H-M   'P 1'
_cell_length_a   9.00104557
_cell_length_b   9.00104557
_cell_length_c   4.45531400
_cell_angle_alpha   90.00000000
_cell_angle_beta   90.00000000
_cell_angle_gamma   119.99999684
_symmetry_Int_Tables_number   1
_chemical_formula_structural   K(MoS)3
_chemical_formula_sum   'K2 Mo6 S6'
_cell_volume   312.60425412
_cell_formula_units_Z   2
loop_
 _symmetry_equiv_pos_site_id
 _symmetry_equiv_pos_as_xyz
  1  'x, y, z'
loop_
 _atom_site_type_symbol
 _atom_site_label
 _atom_site_symmetry_multiplicity
 _atom_site_fract_x
 _atom_site_fract_y
 _atom_site_fract_z
 _atom_site_occupancy
  K  K0  1  0.33333300  0.66666700  0.75000000  1
  K  K1  1  0.66666700  0.33333300  0.25000000  1
  Mo  Mo2  1  0.96637800  0.81430200  0.25000000  1
  Mo  Mo3  1  0.84792400  0.03362200  0.25000000  1
  Mo  Mo4  1  0.15207600  0.96637800  0.75000000  1
  Mo  Mo5  1  0.03362200  0.18569800  0.75000000  1
  Mo  Mo6  1  0.18569800  0.15207600  0.25000000  1
  Mo  Mo7  1  0.81430200  0.84792400  0.75000000  1
  S  S8  1  0.93546900  0.65206900  0.75000000  1
  S  S9  1  0.06453100  0.34793100  0.25000000  1
  S  S10  1  0.28340000  0.93546900  0.25000000  1
  S  S11  1  0.65206900  0.71660000  0.25000000  1
  S  S12  1  0.34793100  0.28340000  0.75000000  1
  S  S13  1  0.71660000  0.06453100  0.75000000  1
