# generated using pymatgen
data_Ba(WO3)6
_symmetry_space_group_name_H-M   'P 1'
_cell_length_a   10.93342841
_cell_length_b   10.93342841
_cell_length_c   8.98804026
_cell_angle_alpha   89.98707355
_cell_angle_beta   89.98707355
_cell_angle_gamma   41.57805361
_symmetry_Int_Tables_number   1
_chemical_formula_structural   Ba(WO3)6
_chemical_formula_sum   'Ba2 W12 O36'
_cell_volume   713.03378104
_cell_formula_units_Z   2
loop_
 _symmetry_equiv_pos_site_id
 _symmetry_equiv_pos_as_xyz
  1  'x, y, z'
loop_
 _atom_site_type_symbol
 _atom_site_label
 _atom_site_symmetry_multiplicity
 _atom_site_fract_x
 _atom_site_fract_y
 _atom_site_fract_z
 _atom_site_occupancy
  Ba  Ba0  1  0.87578200  0.87578200  0.08538000  1
  Ba  Ba1  1  0.12421800  0.12421800  0.91462000  1
  W  W2  1  0.46871900  0.96765500  0.20634700  1
  W  W3  1  0.28463500  0.77913700  0.20656300  1
  W  W4  1  0.96765500  0.46871900  0.20634700  1
  W  W5  1  0.77913700  0.28463500  0.20656300  1
  W  W6  1  0.12666200  0.62319700  0.43297400  1
  W  W7  1  0.62319700  0.12666200  0.43297400  1
  W  W8  1  0.87333800  0.37680300  0.56702600  1
  W  W9  1  0.37680300  0.87333800  0.56702600  1
  W  W10  1  0.22086300  0.71536500  0.79343700  1
  W  W11  1  0.53128100  0.03234500  0.79365300  1
  W  W12  1  0.03234500  0.53128100  0.79365300  1
  W  W13  1  0.71536500  0.22086300  0.79343700  1
  O  O14  1  0.37424600  0.87568700  0.14487200  1
  O  O15  1  0.87568700  0.37424600  0.14487200  1
  O  O16  1  0.21652500  0.21652500  0.19843500  1
  O  O17  1  0.71930000  0.71930000  0.20223800  1
  O  O18  1  0.53151700  0.53151700  0.20386500  1
  O  O19  1  0.03253500  0.03253500  0.19683500  1
  O  O20  1  0.18791800  0.69616500  0.27648900  1
  O  O21  1  0.69616500  0.18791800  0.27648900  1
  O  O22  1  0.56043300  0.05557000  0.27643000  1
  O  O23  1  0.05557000  0.56043300  0.27643000  1
  O  O24  1  0.31133900  0.81040100  0.40945900  1
  O  O25  1  0.87489800  0.87489800  0.42483200  1
  O  O26  1  0.37511900  0.37511900  0.42919700  1
  O  O27  1  0.43887300  0.93934000  0.40951900  1
  O  O28  1  0.93934000  0.43887300  0.40951900  1
  O  O29  1  0.81040100  0.31133900  0.40945900  1
  O  O30  1  0.62488100  0.62488100  0.57080300  1
  O  O31  1  0.12510200  0.12510200  0.57516800  1
  O  O32  1  0.68866100  0.18959900  0.59054100  1
  O  O33  1  0.56112700  0.06066000  0.59048100  1
  O  O34  1  0.18959900  0.68866100  0.59054100  1
  O  O35  1  0.06066000  0.56112700  0.59048100  1
  O  O36  1  0.43956700  0.94443000  0.72357000  1
  O  O37  1  0.30383500  0.81208200  0.72351100  1
  O  O38  1  0.94443000  0.43956700  0.72357000  1
  O  O39  1  0.81208200  0.30383500  0.72351100  1
  O  O40  1  0.28070000  0.28070000  0.79776200  1
  O  O41  1  0.96746500  0.96746500  0.80316500  1
  O  O42  1  0.46848300  0.46848300  0.79613500  1
  O  O43  1  0.78347500  0.78347500  0.80156500  1
  O  O44  1  0.12431300  0.62575400  0.85512800  1
  O  O45  1  0.62575400  0.12431300  0.85512800  1
  O  O46  1  0.50000000  0.00000000  0.00000000  1
  O  O47  1  0.75354200  0.24645800  0.00000000  1
  O  O48  1  0.00000000  0.50000000  0.00000000  1
  O  O49  1  0.24645800  0.75354200  0.00000000  1
