# generated using pymatgen
data_CaReH4ClO6
_symmetry_space_group_name_H-M   'P 1'
_cell_length_a   7.96403844
_cell_length_b   7.96403844
_cell_length_c   6.83766000
_cell_angle_alpha   90.00000000
_cell_angle_beta   90.00000000
_cell_angle_gamma   128.06859835
_symmetry_Int_Tables_number   1
_chemical_formula_structural   CaReH4ClO6
_chemical_formula_sum   'Ca2 Re2 H8 Cl2 O12'
_cell_volume   341.42836376
_cell_formula_units_Z   2
loop_
 _symmetry_equiv_pos_site_id
 _symmetry_equiv_pos_as_xyz
  1  'x, y, z'
loop_
 _atom_site_type_symbol
 _atom_site_label
 _atom_site_symmetry_multiplicity
 _atom_site_fract_x
 _atom_site_fract_y
 _atom_site_fract_z
 _atom_site_occupancy
  Ca  Ca0  1  0.58805600  0.41194400  0.25000000  1
  Ca  Ca1  1  0.41194400  0.58805600  0.75000000  1
  Re  Re2  1  0.75211800  0.24788200  0.75000000  1
  Re  Re3  1  0.24788200  0.75211800  0.25000000  1
  H  H4  1  0.76144700  0.85268700  0.06286200  1
  H  H5  1  0.23855300  0.14731300  0.56286200  1
  H  H6  1  0.85268700  0.76144700  0.93713800  1
  H  H7  1  0.14731300  0.23855300  0.43713800  1
  H  H8  1  0.23855300  0.14731300  0.93713800  1
  H  H9  1  0.76144700  0.85268700  0.43713800  1
  H  H10  1  0.14731300  0.23855300  0.06286200  1
  H  H11  1  0.85268700  0.76144700  0.56286200  1
  Cl  Cl12  1  0.11940400  0.88059600  0.75000000  1
  Cl  Cl13  1  0.88059600  0.11940400  0.25000000  1
  O  O14  1  0.67894600  0.32105400  0.54439900  1
  O  O15  1  0.32105400  0.67894600  0.04439900  1
  O  O16  1  0.32105400  0.67894600  0.45560100  1
  O  O17  1  0.67894600  0.32105400  0.95560100  1
  O  O18  1  0.02654900  0.37930400  0.75000000  1
  O  O19  1  0.97345100  0.62069600  0.25000000  1
  O  O20  1  0.37930400  0.02654900  0.25000000  1
  O  O21  1  0.62069600  0.97345100  0.75000000  1
  O  O22  1  0.71821600  0.71821600  0.50000000  1
  O  O23  1  0.28178400  0.28178400  0.00000000  1
  O  O24  1  0.28178400  0.28178400  0.50000000  1
  O  O25  1  0.71821600  0.71821600  0.00000000  1
