# generated using pymatgen
data_YbSiPt2
_symmetry_space_group_name_H-M   'P 1'
_cell_length_a   5.54028700
_cell_length_b   6.92625900
_cell_length_c   7.31337700
_cell_angle_alpha   90.00000000
_cell_angle_beta   90.00000000
_cell_angle_gamma   90.00000000
_symmetry_Int_Tables_number   1
_chemical_formula_structural   YbSiPt2
_chemical_formula_sum   'Yb4 Si4 Pt8'
_cell_volume   280.63959949
_cell_formula_units_Z   4
loop_
 _symmetry_equiv_pos_site_id
 _symmetry_equiv_pos_as_xyz
  1  'x, y, z'
loop_
 _atom_site_type_symbol
 _atom_site_label
 _atom_site_symmetry_multiplicity
 _atom_site_fract_x
 _atom_site_fract_y
 _atom_site_fract_z
 _atom_site_occupancy
  Yb  Yb0  1  0.12938700  0.75000000  0.47957500  1
  Yb  Yb1  1  0.37061300  0.75000000  0.97957500  1
  Yb  Yb2  1  0.62938700  0.25000000  0.02042500  1
  Yb  Yb3  1  0.87061300  0.25000000  0.52042500  1
  Si  Si4  1  0.12769400  0.25000000  0.87636300  1
  Si  Si5  1  0.37230600  0.25000000  0.37636300  1
  Si  Si6  1  0.62769400  0.75000000  0.62363700  1
  Si  Si7  1  0.87230600  0.75000000  0.12363700  1
  Pt  Pt8  1  0.10220100  0.05181300  0.17338500  1
  Pt  Pt9  1  0.10220100  0.44818700  0.17338500  1
  Pt  Pt10  1  0.39779900  0.05181300  0.67338500  1
  Pt  Pt11  1  0.39779900  0.44818700  0.67338500  1
  Pt  Pt12  1  0.60220100  0.55181300  0.32661500  1
  Pt  Pt13  1  0.60220100  0.94818700  0.32661500  1
  Pt  Pt14  1  0.89779900  0.55181300  0.82661500  1
  Pt  Pt15  1  0.89779900  0.94818700  0.82661500  1
