# generated using pymatgen
data_AlCuTe2
_symmetry_space_group_name_H-M   'P 1'
_cell_length_a   7.42081457
_cell_length_b   7.42081457
_cell_length_c   7.42081457
_cell_angle_alpha   131.59386835
_cell_angle_beta   131.59386835
_cell_angle_gamma   70.87122898
_symmetry_Int_Tables_number   1
_chemical_formula_structural   AlCuTe2
_chemical_formula_sum   'Al2 Cu2 Te4'
_cell_volume   223.84969864
_cell_formula_units_Z   2
loop_
 _symmetry_equiv_pos_site_id
 _symmetry_equiv_pos_as_xyz
  1  'x, y, z'
loop_
 _atom_site_type_symbol
 _atom_site_label
 _atom_site_symmetry_multiplicity
 _atom_site_fract_x
 _atom_site_fract_y
 _atom_site_fract_z
 _atom_site_occupancy
  Al  Al0  1  0.25000000  0.75000000  0.50000000  1
  Al  Al1  1  0.50000000  0.50000000  0.00000000  1
  Cu  Cu2  1  0.75000000  0.25000000  0.50000000  1
  Cu  Cu3  1  0.00000000  0.00000000  0.00000000  1
  Te  Te4  1  0.37500000  0.36621300  0.49121300  1
  Te  Te5  1  0.63378700  0.12500000  0.00878700  1
  Te  Te6  1  0.11621300  0.62500000  0.99121300  1
  Te  Te7  1  0.87500000  0.88378700  0.50878700  1
