# generated using pymatgen
data_Rb5SiHO5
_symmetry_space_group_name_H-M   'P 1'
_cell_length_a   6.66392411
_cell_length_b   6.66392411
_cell_length_c   12.17947290
_cell_angle_alpha   80.62224341
_cell_angle_beta   80.62224341
_cell_angle_gamma   111.58274203
_symmetry_Int_Tables_number   1
_chemical_formula_structural   Rb5SiHO5
_chemical_formula_sum   'Rb10 Si2 H2 O10'
_cell_volume   481.35638918
_cell_formula_units_Z   2
loop_
 _symmetry_equiv_pos_site_id
 _symmetry_equiv_pos_as_xyz
  1  'x, y, z'
loop_
 _atom_site_type_symbol
 _atom_site_label
 _atom_site_symmetry_multiplicity
 _atom_site_fract_x
 _atom_site_fract_y
 _atom_site_fract_z
 _atom_site_occupancy
  Rb  Rb0  1  0.26703800  0.26703800  0.96830200  1
  Rb  Rb1  1  0.61434400  0.09311900  0.80215300  1
  Rb  Rb2  1  0.09311900  0.61434400  0.80215300  1
  Rb  Rb3  1  0.78685000  0.78685000  0.60233800  1
  Rb  Rb4  1  0.69358100  0.30641900  0.50000000  1
  Rb  Rb5  1  0.30641900  0.69358100  0.50000000  1
  Rb  Rb6  1  0.21315000  0.21315000  0.39766200  1
  Rb  Rb7  1  0.90688100  0.38565600  0.19784700  1
  Rb  Rb8  1  0.38565600  0.90688100  0.19784700  1
  Rb  Rb9  1  0.73296200  0.73296200  0.03169800  1
  Si  Si10  1  0.16975500  0.16975500  0.69529900  1
  Si  Si11  1  0.83024500  0.83024500  0.30470100  1
  H  H12  1  0.78305500  0.21694500  0.00000000  1
  H  H13  1  0.21694500  0.78305500  0.00000000  1
  O  O14  1  0.69466100  0.30533900  0.00000000  1
  O  O15  1  0.30533900  0.69466100  0.00000000  1
  O  O16  1  0.02101800  0.02101800  0.82739200  1
  O  O17  1  0.39026300  0.39026300  0.70045900  1
  O  O18  1  0.25284300  0.00597900  0.62505600  1
  O  O19  1  0.00597900  0.25284300  0.62505600  1
  O  O20  1  0.99402100  0.74715700  0.37494400  1
  O  O21  1  0.74715700  0.99402100  0.37494400  1
  O  O22  1  0.60973700  0.60973700  0.29954100  1
  O  O23  1  0.97898200  0.97898200  0.17260800  1
