# generated using pymatgen
data_CsNaSe
_symmetry_space_group_name_H-M   'P 1'
_cell_length_a   5.03830000
_cell_length_b   5.03830000
_cell_length_c   8.22974400
_cell_angle_alpha   90.00000000
_cell_angle_beta   90.00000000
_cell_angle_gamma   90.00000000
_symmetry_Int_Tables_number   1
_chemical_formula_structural   CsNaSe
_chemical_formula_sum   'Cs2 Na2 Se2'
_cell_volume   208.90766408
_cell_formula_units_Z   2
loop_
 _symmetry_equiv_pos_site_id
 _symmetry_equiv_pos_as_xyz
  1  'x, y, z'
loop_
 _atom_site_type_symbol
 _atom_site_label
 _atom_site_symmetry_multiplicity
 _atom_site_fract_x
 _atom_site_fract_y
 _atom_site_fract_z
 _atom_site_occupancy
  Cs  Cs0  1  0.50000000  0.00000000  0.65342000  1
  Cs  Cs1  1  0.00000000  0.50000000  0.34658000  1
  Na  Na2  1  0.50000000  0.50000000  0.00000000  1
  Na  Na3  1  0.00000000  0.00000000  0.00000000  1
  Se  Se4  1  0.00000000  0.50000000  0.80433000  1
  Se  Se5  1  0.50000000  0.00000000  0.19567000  1
