# generated using pymatgen
data_K2ZnH4(I2O7)2
_symmetry_space_group_name_H-M   'P 1'
_cell_length_a   8.01567136
_cell_length_b   8.01567136
_cell_length_c   8.35483911
_cell_angle_alpha   59.01468658
_cell_angle_beta   59.01468658
_cell_angle_gamma   58.09461876
_symmetry_Int_Tables_number   1
_chemical_formula_structural   K2ZnH4(I2O7)2
_chemical_formula_sum   'K2 Zn1 H4 I4 O14'
_cell_volume   368.30862812
_cell_formula_units_Z   1
loop_
 _symmetry_equiv_pos_site_id
 _symmetry_equiv_pos_as_xyz
  1  'x, y, z'
loop_
 _atom_site_type_symbol
 _atom_site_label
 _atom_site_symmetry_multiplicity
 _atom_site_fract_x
 _atom_site_fract_y
 _atom_site_fract_z
 _atom_site_occupancy
  K  K0  1  0.97573800  0.02426200  0.00000000  1
  K  K1  1  0.49994100  0.50005900  0.00000000  1
  Zn  Zn2  1  0.04142100  0.95857900  0.50000000  1
  H  H3  1  0.42310600  0.67043100  0.37439100  1
  H  H4  1  0.66101300  0.24315100  0.47100900  1
  H  H5  1  0.75684900  0.33898700  0.52899100  1
  H  H6  1  0.32956900  0.57689400  0.62560900  1
  I  I7  1  0.47133200  0.00442900  0.01656200  1
  I  I8  1  0.99486500  0.55736200  0.48326700  1
  I  I9  1  0.44263800  0.00513500  0.51673300  1
  I  I10  1  0.99557100  0.52866800  0.98343800  1
  O  O11  1  0.56388100  0.71789300  0.13514400  1
  O  O12  1  0.55847100  0.07404300  0.13117200  1
  O  O13  1  0.19258400  0.05728800  0.16858700  1
  O  O14  1  0.07107800  0.60392700  0.21922200  1
  O  O15  1  0.48682900  0.24813000  0.41361500  1
  O  O16  1  0.88055600  0.83535000  0.46554800  1
  O  O17  1  0.78047000  0.21953000  0.50000000  1
  O  O18  1  0.30692700  0.69307300  0.50000000  1
  O  O19  1  0.16465000  0.11944400  0.53445200  1
  O  O20  1  0.75187000  0.51317100  0.58638500  1
  O  O21  1  0.39607300  0.92892200  0.78077800  1
  O  O22  1  0.94271200  0.80741600  0.83141300  1
  O  O23  1  0.92595700  0.44152900  0.86882800  1
  O  O24  1  0.28210700  0.43611900  0.86485600  1
