# generated using pymatgen
data_BaNa2Mg(PO4)2
_symmetry_space_group_name_H-M   'P 1'
_cell_length_a   5.37288037
_cell_length_b   5.37288037
_cell_length_c   7.04243400
_cell_angle_alpha   90.00000000
_cell_angle_beta   90.00000000
_cell_angle_gamma   120.00000457
_symmetry_Int_Tables_number   1
_chemical_formula_structural   BaNa2Mg(PO4)2
_chemical_formula_sum   'Ba1 Na2 Mg1 P2 O8'
_cell_volume   176.06285468
_cell_formula_units_Z   1
loop_
 _symmetry_equiv_pos_site_id
 _symmetry_equiv_pos_as_xyz
  1  'x, y, z'
loop_
 _atom_site_type_symbol
 _atom_site_label
 _atom_site_symmetry_multiplicity
 _atom_site_fract_x
 _atom_site_fract_y
 _atom_site_fract_z
 _atom_site_occupancy
  Ba  Ba0  1  0.00000000  0.00000000  0.50000000  1
  Na  Na1  1  0.66666700  0.33333300  0.17856200  1
  Na  Na2  1  0.33333300  0.66666700  0.82143800  1
  Mg  Mg3  1  0.00000000  0.00000000  0.00000000  1
  P  P4  1  0.33333300  0.66666700  0.25739900  1
  P  P5  1  0.66666700  0.33333300  0.74260100  1
  O  O6  1  0.64218500  0.77100900  0.17883700  1
  O  O7  1  0.22899100  0.87117500  0.17883700  1
  O  O8  1  0.12882500  0.35781500  0.17883700  1
  O  O9  1  0.33333300  0.66666700  0.47556600  1
  O  O10  1  0.66666700  0.33333300  0.52443400  1
  O  O11  1  0.87117500  0.64218500  0.82116300  1
  O  O12  1  0.77100900  0.12882500  0.82116300  1
  O  O13  1  0.35781500  0.22899100  0.82116300  1
