# generated using pymatgen
data_Ba2InBiS5
_symmetry_space_group_name_H-M   'P 1'
_cell_length_a   9.55251461
_cell_length_b   9.55251461
_cell_length_c   12.96383600
_cell_angle_alpha   90.00000000
_cell_angle_beta   90.00000000
_cell_angle_gamma   154.52573515
_symmetry_Int_Tables_number   1
_chemical_formula_structural   Ba2InBiS5
_chemical_formula_sum   'Ba4 In2 Bi2 S10'
_cell_volume   508.79647370
_cell_formula_units_Z   2
loop_
 _symmetry_equiv_pos_site_id
 _symmetry_equiv_pos_as_xyz
  1  'x, y, z'
loop_
 _atom_site_type_symbol
 _atom_site_label
 _atom_site_symmetry_multiplicity
 _atom_site_fract_x
 _atom_site_fract_y
 _atom_site_fract_z
 _atom_site_occupancy
  Ba  Ba0  1  0.12953500  0.87046500  0.18967500  1
  Ba  Ba1  1  0.88724100  0.11275900  0.31556800  1
  Ba  Ba2  1  0.87046500  0.12953500  0.68967500  1
  Ba  Ba3  1  0.11275900  0.88724100  0.81556800  1
  In  In4  1  0.44381900  0.55618100  0.05570200  1
  In  In5  1  0.55618100  0.44381900  0.55570200  1
  Bi  Bi6  1  0.21693000  0.78307000  0.47809700  1
  Bi  Bi7  1  0.78307000  0.21693000  0.97809700  1
  S  S8  1  0.64289900  0.35710100  0.99968200  1
  S  S9  1  0.31589400  0.68410600  0.13066100  1
  S  S10  1  0.50396700  0.49603300  0.22361400  1
  S  S11  1  0.71603600  0.28396400  0.33480500  1
  S  S12  1  0.04533500  0.95466500  0.44822600  1
  S  S13  1  0.35710100  0.64289900  0.49968100  1
  S  S14  1  0.68410600  0.31589400  0.63066100  1
  S  S15  1  0.49603300  0.50396700  0.72361400  1
  S  S16  1  0.28396400  0.71603600  0.83480500  1
  S  S17  1  0.95466500  0.04533500  0.94822600  1
