# generated using pymatgen
data_Sr2CdAs2
_symmetry_space_group_name_H-M   'P 1'
_cell_length_a   8.83742607
_cell_length_b   8.83742607
_cell_length_c   7.68813700
_cell_angle_alpha   90.00000000
_cell_angle_beta   90.00000000
_cell_angle_gamma   150.61966630
_symmetry_Int_Tables_number   1
_chemical_formula_structural   Sr2CdAs2
_chemical_formula_sum   'Sr4 Cd2 As4'
_cell_volume   294.58077116
_cell_formula_units_Z   2
loop_
 _symmetry_equiv_pos_site_id
 _symmetry_equiv_pos_as_xyz
  1  'x, y, z'
loop_
 _atom_site_type_symbol
 _atom_site_label
 _atom_site_symmetry_multiplicity
 _atom_site_fract_x
 _atom_site_fract_y
 _atom_site_fract_z
 _atom_site_occupancy
  Sr  Sr0  1  0.53414800  0.46585200  0.23598800  1
  Sr  Sr1  1  0.70284800  0.29715200  0.89265000  1
  Sr  Sr2  1  0.29715200  0.70284800  0.39265000  1
  Sr  Sr3  1  0.46585200  0.53414800  0.73598800  1
  Cd  Cd4  1  0.09596800  0.90403200  0.57798800  1
  Cd  Cd5  1  0.90403200  0.09596800  0.07798800  1
  As  As6  1  0.06333000  0.93667000  0.94188400  1
  As  As7  1  0.67553100  0.32446900  0.48584800  1
  As  As8  1  0.32446900  0.67553100  0.98584800  1
  As  As9  1  0.93667000  0.06333000  0.44188400  1
