# generated using pymatgen
data_KSr2Cd2Sb3
_symmetry_space_group_name_H-M   'P 1'
_cell_length_a   4.90539900
_cell_length_b   12.96770500
_cell_length_c   16.57581700
_cell_angle_alpha   90.00000000
_cell_angle_beta   90.00000000
_cell_angle_gamma   90.00000000
_symmetry_Int_Tables_number   1
_chemical_formula_structural   KSr2Cd2Sb3
_chemical_formula_sum   'K4 Sr8 Cd8 Sb12'
_cell_volume   1054.41701115
_cell_formula_units_Z   4
loop_
 _symmetry_equiv_pos_site_id
 _symmetry_equiv_pos_as_xyz
  1  'x, y, z'
loop_
 _atom_site_type_symbol
 _atom_site_label
 _atom_site_symmetry_multiplicity
 _atom_site_fract_x
 _atom_site_fract_y
 _atom_site_fract_z
 _atom_site_occupancy
  K  K0  1  0.25000000  0.40697700  0.54198900  1
  K  K1  1  0.75000000  0.09302300  0.04198900  1
  K  K2  1  0.25000000  0.90697700  0.95801100  1
  K  K3  1  0.75000000  0.59302300  0.45801100  1
  Sr  Sr4  1  0.25000000  0.36312900  0.27768300  1
  Sr  Sr5  1  0.75000000  0.13687100  0.77768300  1
  Sr  Sr6  1  0.25000000  0.86312900  0.22231700  1
  Sr  Sr7  1  0.75000000  0.63687100  0.72231700  1
  Sr  Sr8  1  0.25000000  0.10136500  0.42268900  1
  Sr  Sr9  1  0.75000000  0.39863500  0.92268900  1
  Sr  Sr10  1  0.25000000  0.60136500  0.07731100  1
  Sr  Sr11  1  0.75000000  0.89863500  0.57731100  1
  Cd  Cd12  1  0.25000000  0.30018300  0.07301500  1
  Cd  Cd13  1  0.75000000  0.19981700  0.57301500  1
  Cd  Cd14  1  0.25000000  0.80018300  0.42698500  1
  Cd  Cd15  1  0.75000000  0.69981700  0.92698500  1
  Cd  Cd16  1  0.25000000  0.37058700  0.77737500  1
  Cd  Cd17  1  0.75000000  0.12941300  0.27737500  1
  Cd  Cd18  1  0.25000000  0.87058700  0.72262500  1
  Cd  Cd19  1  0.75000000  0.62941300  0.22262500  1
  Sb  Sb20  1  0.25000000  0.12142000  0.18798200  1
  Sb  Sb21  1  0.75000000  0.37858000  0.68798200  1
  Sb  Sb22  1  0.25000000  0.62142000  0.31201800  1
  Sb  Sb23  1  0.75000000  0.87858000  0.81201800  1
  Sb  Sb24  1  0.25000000  0.71177900  0.58892200  1
  Sb  Sb25  1  0.75000000  0.78822100  0.08892200  1
  Sb  Sb26  1  0.25000000  0.21177900  0.91107800  1
  Sb  Sb27  1  0.75000000  0.28822100  0.41107800  1
  Sb  Sb28  1  0.25000000  0.07987100  0.62678100  1
  Sb  Sb29  1  0.75000000  0.42012900  0.12678100  1
  Sb  Sb30  1  0.25000000  0.57987100  0.87321900  1
  Sb  Sb31  1  0.75000000  0.92012900  0.37321900  1
