# generated using pymatgen
data_KF3
_symmetry_space_group_name_H-M   'P 1'
_cell_length_a   7.37124700
_cell_length_b   7.59648500
_cell_length_c   9.89794900
_cell_angle_alpha   90.00000000
_cell_angle_beta   90.00000000
_cell_angle_gamma   90.00000000
_symmetry_Int_Tables_number   1
_chemical_formula_structural   KF3
_chemical_formula_sum   'K8 F24'
_cell_volume   554.24126903
_cell_formula_units_Z   8
loop_
 _symmetry_equiv_pos_site_id
 _symmetry_equiv_pos_as_xyz
  1  'x, y, z'
loop_
 _atom_site_type_symbol
 _atom_site_label
 _atom_site_symmetry_multiplicity
 _atom_site_fract_x
 _atom_site_fract_y
 _atom_site_fract_z
 _atom_site_occupancy
  K  K0  1  0.42841300  0.77306500  0.64748200  1
  K  K1  1  0.92841300  0.72693500  0.35251800  1
  K  K2  1  0.57158700  0.27306500  0.85251800  1
  K  K3  1  0.07158700  0.22693500  0.14748200  1
  K  K4  1  0.46789200  0.82579300  0.12942300  1
  K  K5  1  0.96789200  0.67420700  0.87057700  1
  K  K6  1  0.53210800  0.32579300  0.37057700  1
  K  K7  1  0.03210800  0.17420700  0.62942300  1
  F  F8  1  0.78930900  0.69315100  0.62430400  1
  F  F9  1  0.28930900  0.80684900  0.37569600  1
  F  F10  1  0.21069100  0.19315100  0.87569600  1
  F  F11  1  0.71069100  0.30684900  0.12430400  1
  F  F12  1  0.03916300  0.79670400  0.61053100  1
  F  F13  1  0.53916300  0.70329600  0.38946900  1
  F  F14  1  0.96083700  0.29670400  0.88946900  1
  F  F15  1  0.46083700  0.20329600  0.11053100  1
  F  F16  1  0.26844500  0.93821600  0.87161900  1
  F  F17  1  0.76844500  0.56178400  0.12838100  1
  F  F18  1  0.73155500  0.43821600  0.62838100  1
  F  F19  1  0.23155500  0.06178400  0.37161900  1
  F  F20  1  0.76623700  0.96684900  0.00968200  1
  F  F21  1  0.26623700  0.53315100  0.99031700  1
  F  F22  1  0.23376300  0.46684900  0.49031800  1
  F  F23  1  0.73376300  0.03315100  0.50968300  1
  F  F24  1  0.23461200  0.46325800  0.68941800  1
  F  F25  1  0.73461200  0.03674200  0.31058200  1
  F  F26  1  0.76538800  0.96325800  0.81058200  1
  F  F27  1  0.26538800  0.53674200  0.18941800  1
  F  F28  1  0.49306700  0.62125800  0.90535500  1
  F  F29  1  0.99306700  0.87874200  0.09464500  1
  F  F30  1  0.50693300  0.12125800  0.59464500  1
  F  F31  1  0.00693300  0.37874200  0.40535500  1
