# generated using pymatgen
data_K2Sn2Se5
_symmetry_space_group_name_H-M   'P 1'
_cell_length_a   7.26747883
_cell_length_b   7.26747883
_cell_length_c   12.09066312
_cell_angle_alpha   75.50083670
_cell_angle_beta   75.50083670
_cell_angle_gamma   71.13934605
_symmetry_Int_Tables_number   1
_chemical_formula_structural   K2Sn2Se5
_chemical_formula_sum   'K4 Sn4 Se10'
_cell_volume   574.95876292
_cell_formula_units_Z   2
loop_
 _symmetry_equiv_pos_site_id
 _symmetry_equiv_pos_as_xyz
  1  'x, y, z'
loop_
 _atom_site_type_symbol
 _atom_site_label
 _atom_site_symmetry_multiplicity
 _atom_site_fract_x
 _atom_site_fract_y
 _atom_site_fract_z
 _atom_site_occupancy
  K  K0  1  0.44004100  0.09542400  0.31918400  1
  K  K1  1  0.90457600  0.55995900  0.18081600  1
  K  K2  1  0.55995900  0.90457600  0.68081600  1
  K  K3  1  0.09542400  0.44004100  0.81918400  1
  Sn  Sn4  1  0.24671200  0.94506700  0.05752500  1
  Sn  Sn5  1  0.94506700  0.24671200  0.55752500  1
  Sn  Sn6  1  0.75328800  0.05493300  0.94247500  1
  Sn  Sn7  1  0.05493300  0.75328800  0.44247500  1
  Se  Se8  1  0.68439300  0.31560700  0.75000000  1
  Se  Se9  1  0.31560700  0.68439300  0.25000000  1
  Se  Se10  1  0.25724000  0.35536000  0.53571100  1
  Se  Se11  1  0.12162800  0.84812100  0.62029700  1
  Se  Se12  1  0.64464000  0.74276000  0.96428900  1
  Se  Se13  1  0.74276000  0.64464000  0.46428900  1
  Se  Se14  1  0.35536000  0.25724000  0.03571100  1
  Se  Se15  1  0.87837200  0.15187900  0.37970300  1
  Se  Se16  1  0.84812100  0.12162800  0.12029700  1
  Se  Se17  1  0.15187900  0.87837200  0.87970300  1
