# generated using pymatgen
data_Na5TaO5
_symmetry_space_group_name_H-M   'P 1'
_cell_length_a   6.07537564
_cell_length_b   6.07537564
_cell_length_c   10.12679675
_cell_angle_alpha   81.41661822
_cell_angle_beta   81.41661822
_cell_angle_gamma   116.95278806
_symmetry_Int_Tables_number   1
_chemical_formula_structural   Na5TaO5
_chemical_formula_sum   'Na10 Ta2 O10'
_cell_volume   319.31919836
_cell_formula_units_Z   2
loop_
 _symmetry_equiv_pos_site_id
 _symmetry_equiv_pos_as_xyz
  1  'x, y, z'
loop_
 _atom_site_type_symbol
 _atom_site_label
 _atom_site_symmetry_multiplicity
 _atom_site_fract_x
 _atom_site_fract_y
 _atom_site_fract_z
 _atom_site_occupancy
  Na  Na0  1  0.32216600  0.00515400  0.92237300  1
  Na  Na1  1  0.99484600  0.67783400  0.57762700  1
  Na  Na2  1  0.44403700  0.21532500  0.55023100  1
  Na  Na3  1  0.78467500  0.55596300  0.94976900  1
  Na  Na4  1  0.55596300  0.78467500  0.44976900  1
  Na  Na5  1  0.21532500  0.44403700  0.05023100  1
  Na  Na6  1  0.66858500  0.33141500  0.25000000  1
  Na  Na7  1  0.33141500  0.66858500  0.75000000  1
  Na  Na8  1  0.00515400  0.32216600  0.42237300  1
  Na  Na9  1  0.67783400  0.99484600  0.07762700  1
  Ta  Ta10  1  0.09279000  0.90721000  0.25000000  1
  Ta  Ta11  1  0.90721000  0.09279000  0.75000000  1
  O  O12  1  0.90818600  0.09181400  0.25000000  1
  O  O13  1  0.09181400  0.90818600  0.75000000  1
  O  O14  1  0.30380300  0.96019000  0.38086200  1
  O  O15  1  0.03981000  0.69619700  0.11913800  1
  O  O16  1  0.40197600  0.18828400  0.10516800  1
  O  O17  1  0.81171600  0.59802400  0.39483200  1
  O  O18  1  0.59802400  0.81171600  0.89483200  1
  O  O19  1  0.18828400  0.40197600  0.60516800  1
  O  O20  1  0.69619700  0.03981000  0.61913800  1
  O  O21  1  0.96019000  0.30380300  0.88086200  1
