# generated using pymatgen
data_YbMgSi
_symmetry_space_group_name_H-M   'P 1'
_cell_length_a   4.41597600
_cell_length_b   7.44867600
_cell_length_c   8.25450000
_cell_angle_alpha   90.00000000
_cell_angle_beta   90.00000000
_cell_angle_gamma   90.00000000
_symmetry_Int_Tables_number   1
_chemical_formula_structural   YbMgSi
_chemical_formula_sum   'Yb4 Mg4 Si4'
_cell_volume   271.51670848
_cell_formula_units_Z   4
loop_
 _symmetry_equiv_pos_site_id
 _symmetry_equiv_pos_as_xyz
  1  'x, y, z'
loop_
 _atom_site_type_symbol
 _atom_site_label
 _atom_site_symmetry_multiplicity
 _atom_site_fract_x
 _atom_site_fract_y
 _atom_site_fract_z
 _atom_site_occupancy
  Yb  Yb0  1  0.25000000  0.48135200  0.18087700  1
  Yb  Yb1  1  0.25000000  0.98135200  0.31912300  1
  Yb  Yb2  1  0.75000000  0.01864800  0.68087700  1
  Yb  Yb3  1  0.75000000  0.51864800  0.81912300  1
  Mg  Mg4  1  0.75000000  0.14479800  0.06445400  1
  Mg  Mg5  1  0.75000000  0.64479800  0.43554600  1
  Mg  Mg6  1  0.25000000  0.35520200  0.56445400  1
  Mg  Mg7  1  0.25000000  0.85520200  0.93554600  1
  Si  Si8  1  0.75000000  0.77014400  0.11469600  1
  Si  Si9  1  0.75000000  0.27014400  0.38530400  1
  Si  Si10  1  0.25000000  0.72985600  0.61469600  1
  Si  Si11  1  0.25000000  0.22985600  0.88530400  1
