# generated using pymatgen
data_Li(Co3P2)2
_symmetry_space_group_name_H-M   'P 1'
_cell_length_a   6.54033726
_cell_length_b   6.54033726
_cell_length_c   3.33567800
_cell_angle_alpha   90.00000000
_cell_angle_beta   90.00000000
_cell_angle_gamma   119.99999249
_symmetry_Int_Tables_number   1
_chemical_formula_structural   Li(Co3P2)2
_chemical_formula_sum   'Li1 Co6 P4'
_cell_volume   123.57057640
_cell_formula_units_Z   1
loop_
 _symmetry_equiv_pos_site_id
 _symmetry_equiv_pos_as_xyz
  1  'x, y, z'
loop_
 _atom_site_type_symbol
 _atom_site_label
 _atom_site_symmetry_multiplicity
 _atom_site_fract_x
 _atom_site_fract_y
 _atom_site_fract_z
 _atom_site_occupancy
  Li  Li0  1  0.00000000  0.00000000  0.00000000  1
  Co  Co1  1  0.19992300  0.80007700  0.50000000  1
  Co  Co2  1  0.19992300  0.39984600  0.50000000  1
  Co  Co3  1  0.53600800  0.07201600  0.00000000  1
  Co  Co4  1  0.92798400  0.46399200  0.00000000  1
  Co  Co5  1  0.53600800  0.46399200  0.00000000  1
  Co  Co6  1  0.60015400  0.80007700  0.50000000  1
  P  P7  1  0.81642100  0.18357900  0.50000000  1
  P  P8  1  0.36715800  0.18357900  0.50000000  1
  P  P9  1  0.33333300  0.66666700  0.00000000  1
  P  P10  1  0.81642100  0.63284200  0.50000000  1
