# generated using pymatgen
data_Ba(NdS2)2
_symmetry_space_group_name_H-M   'P 1'
_cell_length_a   4.24172200
_cell_length_b   11.95136700
_cell_length_c   14.96529500
_cell_angle_alpha   90.00000000
_cell_angle_beta   90.00000000
_cell_angle_gamma   90.00000000
_symmetry_Int_Tables_number   1
_chemical_formula_structural   Ba(NdS2)2
_chemical_formula_sum   'Ba4 Nd8 S16'
_cell_volume   758.65629668
_cell_formula_units_Z   4
loop_
 _symmetry_equiv_pos_site_id
 _symmetry_equiv_pos_as_xyz
  1  'x, y, z'
loop_
 _atom_site_type_symbol
 _atom_site_label
 _atom_site_symmetry_multiplicity
 _atom_site_fract_x
 _atom_site_fract_y
 _atom_site_fract_z
 _atom_site_occupancy
  Ba  Ba0  1  0.25000000  0.23632300  0.65760400  1
  Ba  Ba1  1  0.75000000  0.26367700  0.15760400  1
  Ba  Ba2  1  0.25000000  0.73632300  0.84239600  1
  Ba  Ba3  1  0.75000000  0.76367700  0.34239600  1
  Nd  Nd4  1  0.25000000  0.89619600  0.59964500  1
  Nd  Nd5  1  0.75000000  0.60380400  0.09964500  1
  Nd  Nd6  1  0.25000000  0.39619600  0.90035500  1
  Nd  Nd7  1  0.75000000  0.10380400  0.40035500  1
  Nd  Nd8  1  0.25000000  0.93854200  0.10942100  1
  Nd  Nd9  1  0.75000000  0.56145800  0.60942100  1
  Nd  Nd10  1  0.25000000  0.43854200  0.39057900  1
  Nd  Nd11  1  0.75000000  0.06145800  0.89057900  1
  S  S12  1  0.25000000  0.49619300  0.71813900  1
  S  S13  1  0.75000000  0.00380700  0.21813900  1
  S  S14  1  0.25000000  0.99619300  0.78186100  1
  S  S15  1  0.75000000  0.50380700  0.28186100  1
  S  S16  1  0.25000000  0.64706100  0.49069800  1
  S  S17  1  0.75000000  0.85293900  0.99069800  1
  S  S18  1  0.25000000  0.14706100  0.00930200  1
  S  S19  1  0.75000000  0.35293900  0.50930200  1
  S  S20  1  0.25000000  0.72588700  0.18290500  1
  S  S21  1  0.75000000  0.77411300  0.68290500  1
  S  S22  1  0.25000000  0.22588700  0.31709500  1
  S  S23  1  0.75000000  0.27411300  0.81709500  1
  S  S24  1  0.25000000  0.94104900  0.41570500  1
  S  S25  1  0.75000000  0.55895100  0.91570500  1
  S  S26  1  0.25000000  0.44104900  0.08429500  1
  S  S27  1  0.75000000  0.05895100  0.58429500  1
