# generated using pymatgen
data_Ba8Bi4H2O
_symmetry_space_group_name_H-M   'P 1'
_cell_length_a   19.71341552
_cell_length_b   19.71341552
_cell_length_c   19.71341552
_cell_angle_alpha   164.51274432
_cell_angle_beta   164.51274432
_cell_angle_gamma   21.97001967
_symmetry_Int_Tables_number   1
_chemical_formula_structural   Ba8Bi4H2O
_chemical_formula_sum   'Ba8 Bi4 H2 O1'
_cell_volume   546.15015254
_cell_formula_units_Z   1
loop_
 _symmetry_equiv_pos_site_id
 _symmetry_equiv_pos_as_xyz
  1  'x, y, z'
loop_
 _atom_site_type_symbol
 _atom_site_label
 _atom_site_symmetry_multiplicity
 _atom_site_fract_x
 _atom_site_fract_y
 _atom_site_fract_z
 _atom_site_occupancy
  Ba  Ba0  1  0.00000000  0.50000000  0.50000000  1
  Ba  Ba1  1  0.50000000  0.00000000  0.50000000  1
  Ba  Ba2  1  0.08424700  0.08424700  0.00000000  1
  Ba  Ba3  1  0.66009500  0.66009500  0.00000000  1
  Ba  Ba4  1  0.25000000  0.75000000  0.50000000  1
  Ba  Ba5  1  0.75000000  0.25000000  0.50000000  1
  Ba  Ba6  1  0.33990500  0.33990500  0.00000000  1
  Ba  Ba7  1  0.91575300  0.91575300  0.00000000  1
  Bi  Bi8  1  0.56749300  0.56749300  0.00000000  1
  Bi  Bi9  1  0.17961600  0.17961600  0.00000000  1
  Bi  Bi10  1  0.82038400  0.82038400  0.00000000  1
  Bi  Bi11  1  0.43250700  0.43250700  0.00000000  1
  H  H12  1  0.72911900  0.72911900  0.00000000  1
  H  H13  1  0.27088100  0.27088100  0.00000000  1
  O  O14  1  0.00000000  0.00000000  0.00000000  1
