# generated using pymatgen
data_Yb2AlGe3
_symmetry_space_group_name_H-M   'P 1'
_cell_length_a   4.19648500
_cell_length_b   6.92820000
_cell_length_c   18.32596500
_cell_angle_alpha   90.00000000
_cell_angle_beta   90.00000000
_cell_angle_gamma   90.00000000
_symmetry_Int_Tables_number   1
_chemical_formula_structural   Yb2AlGe3
_chemical_formula_sum   'Yb8 Al4 Ge12'
_cell_volume   532.81070768
_cell_formula_units_Z   4
loop_
 _symmetry_equiv_pos_site_id
 _symmetry_equiv_pos_as_xyz
  1  'x, y, z'
loop_
 _atom_site_type_symbol
 _atom_site_label
 _atom_site_symmetry_multiplicity
 _atom_site_fract_x
 _atom_site_fract_y
 _atom_site_fract_z
 _atom_site_occupancy
  Yb  Yb0  1  0.75000000  0.83447200  0.92011200  1
  Yb  Yb1  1  0.25000000  0.66552800  0.42011200  1
  Yb  Yb2  1  0.75000000  0.33447200  0.57988800  1
  Yb  Yb3  1  0.25000000  0.16552800  0.07988800  1
  Yb  Yb4  1  0.75000000  0.81336000  0.70114000  1
  Yb  Yb5  1  0.25000000  0.68664000  0.20114000  1
  Yb  Yb6  1  0.75000000  0.31336000  0.79886000  1
  Yb  Yb7  1  0.25000000  0.18664000  0.29886000  1
  Al  Al8  1  0.75000000  0.53663300  0.06128300  1
  Al  Al9  1  0.25000000  0.96336700  0.56128300  1
  Al  Al10  1  0.75000000  0.03663300  0.43871700  1
  Al  Al11  1  0.25000000  0.46336700  0.93871700  1
  Ge  Ge12  1  0.75000000  0.75773800  0.53634200  1
  Ge  Ge13  1  0.25000000  0.74226200  0.03634200  1
  Ge  Ge14  1  0.75000000  0.25773800  0.96365800  1
  Ge  Ge15  1  0.25000000  0.24226200  0.46365800  1
  Ge  Ge16  1  0.75000000  0.50354800  0.31579400  1
  Ge  Ge17  1  0.25000000  0.99645200  0.81579400  1
  Ge  Ge18  1  0.75000000  0.00354800  0.18420600  1
  Ge  Ge19  1  0.25000000  0.49645200  0.68420600  1
  Ge  Ge20  1  0.75000000  0.86779100  0.31159300  1
  Ge  Ge21  1  0.25000000  0.63220900  0.81159300  1
  Ge  Ge22  1  0.75000000  0.36779100  0.18840700  1
  Ge  Ge23  1  0.25000000  0.13220900  0.68840700  1
