# generated using pymatgen
data_NaGdS2
_symmetry_space_group_name_H-M   'P 1'
_cell_length_a   7.08321650
_cell_length_b   7.08321650
_cell_length_c   7.08321626
_cell_angle_alpha   33.07906836
_cell_angle_beta   33.07906836
_cell_angle_gamma   33.07907071
_symmetry_Int_Tables_number   1
_chemical_formula_structural   NaGdS2
_chemical_formula_sum   'Na1 Gd1 S2'
_cell_volume   94.22272666
_cell_formula_units_Z   1
loop_
 _symmetry_equiv_pos_site_id
 _symmetry_equiv_pos_as_xyz
  1  'x, y, z'
loop_
 _atom_site_type_symbol
 _atom_site_label
 _atom_site_symmetry_multiplicity
 _atom_site_fract_x
 _atom_site_fract_y
 _atom_site_fract_z
 _atom_site_occupancy
  Na  Na0  1  0.50000000  0.50000000  0.50000000  1
  Gd  Gd1  1  0.00000000  0.00000000  0.00000000  1
  S  S2  1  0.74257200  0.74257200  0.74257200  1
  S  S3  1  0.25742800  0.25742800  0.25742800  1
