# generated using pymatgen
data_K2InP2S7
_symmetry_space_group_name_H-M   'P 1'
_cell_length_a   9.09261951
_cell_length_b   9.09261951
_cell_length_c   8.83522841
_cell_angle_alpha   74.43245109
_cell_angle_beta   74.43245109
_cell_angle_gamma   72.61745899
_symmetry_Int_Tables_number   1
_chemical_formula_structural   K2InP2S7
_chemical_formula_sum   'K4 In2 P4 S14'
_cell_volume   657.30499480
_cell_formula_units_Z   2
loop_
 _symmetry_equiv_pos_site_id
 _symmetry_equiv_pos_as_xyz
  1  'x, y, z'
loop_
 _atom_site_type_symbol
 _atom_site_label
 _atom_site_symmetry_multiplicity
 _atom_site_fract_x
 _atom_site_fract_y
 _atom_site_fract_z
 _atom_site_occupancy
  K  K0  1  0.61204600  0.04739300  0.15909800  1
  K  K1  1  0.95260700  0.38795400  0.84090200  1
  K  K2  1  0.38795400  0.95260700  0.84090200  1
  K  K3  1  0.04739300  0.61204600  0.15909800  1
  In  In4  1  0.68896000  0.31104000  0.50000000  1
  In  In5  1  0.31104000  0.68896000  0.50000000  1
  P  P6  1  0.94011900  0.94011900  0.44068300  1
  P  P7  1  0.05988100  0.05988100  0.55931700  1
  P  P8  1  0.38995100  0.38995100  0.81467200  1
  P  P9  1  0.61004900  0.61004900  0.18532800  1
  S  S10  1  0.69237200  0.36981400  0.19565000  1
  S  S11  1  0.63018600  0.30762800  0.80435000  1
  S  S12  1  0.30762800  0.63018600  0.80435000  1
  S  S13  1  0.36981400  0.69237200  0.19565000  1
  S  S14  1  0.99405300  0.99405300  0.20261900  1
  S  S15  1  0.00594700  0.00594700  0.79738100  1
  S  S16  1  0.70257500  0.01402400  0.53386400  1
  S  S17  1  0.98597600  0.29742500  0.46613600  1
  S  S18  1  0.29742500  0.98597600  0.46613600  1
  S  S19  1  0.01402400  0.70257500  0.53386400  1
  S  S20  1  0.27012500  0.27012500  0.00965700  1
  S  S21  1  0.72987500  0.72987500  0.99034300  1
  S  S22  1  0.36148200  0.36148200  0.59543400  1
  S  S23  1  0.63851800  0.63851800  0.40456600  1
