# generated using pymatgen
data_RbNaSnF6
_symmetry_space_group_name_H-M   'P 1'
_cell_length_a   8.33737700
_cell_length_b   11.17223800
_cell_length_c   13.38459000
_cell_angle_alpha   90.00000000
_cell_angle_beta   90.00000000
_cell_angle_gamma   90.00000000
_symmetry_Int_Tables_number   1
_chemical_formula_structural   RbNaSnF6
_chemical_formula_sum   'Rb8 Na8 Sn8 F48'
_cell_volume   1246.73654813
_cell_formula_units_Z   8
loop_
 _symmetry_equiv_pos_site_id
 _symmetry_equiv_pos_as_xyz
  1  'x, y, z'
loop_
 _atom_site_type_symbol
 _atom_site_label
 _atom_site_symmetry_multiplicity
 _atom_site_fract_x
 _atom_site_fract_y
 _atom_site_fract_z
 _atom_site_occupancy
  Rb  Rb0  1  0.50000000  0.75000000  0.57503500  1
  Rb  Rb1  1  0.00000000  0.25000000  0.92496500  1
  Rb  Rb2  1  0.50000000  0.25000000  0.42496500  1
  Rb  Rb3  1  0.00000000  0.75000000  0.07503500  1
  Rb  Rb4  1  0.00000000  0.75000000  0.63148300  1
  Rb  Rb5  1  0.50000000  0.25000000  0.86851700  1
  Rb  Rb6  1  0.00000000  0.25000000  0.36851700  1
  Rb  Rb7  1  0.50000000  0.75000000  0.13148300  1
  Na  Na8  1  0.75497500  0.07507700  0.64253900  1
  Na  Na9  1  0.25497500  0.92492300  0.85746100  1
  Na  Na10  1  0.74502500  0.57507700  0.85746100  1
  Na  Na11  1  0.24502500  0.42492300  0.64253900  1
  Na  Na12  1  0.24502500  0.92492300  0.35746100  1
  Na  Na13  1  0.74502500  0.07507700  0.14253900  1
  Na  Na14  1  0.25497500  0.42492300  0.14253900  1
  Na  Na15  1  0.75497500  0.57507700  0.35746100  1
  Sn  Sn16  1  0.75105000  0.42541000  0.13513600  1
  Sn  Sn17  1  0.25105000  0.57459000  0.36486400  1
  Sn  Sn18  1  0.74895000  0.92541000  0.36486400  1
  Sn  Sn19  1  0.24895000  0.07459000  0.13513600  1
  Sn  Sn20  1  0.24895000  0.57459000  0.86486400  1
  Sn  Sn21  1  0.74895000  0.42541000  0.63513600  1
  Sn  Sn22  1  0.25105000  0.07459000  0.63513600  1
  Sn  Sn23  1  0.75105000  0.92541000  0.86486400  1
  F  F24  1  0.71046400  0.87643900  0.72232500  1
  F  F25  1  0.21046400  0.12356100  0.77767500  1
  F  F26  1  0.78953600  0.37643900  0.77767500  1
  F  F27  1  0.28953600  0.62356100  0.72232500  1
  F  F28  1  0.28953600  0.12356100  0.27767500  1
  F  F29  1  0.78953600  0.87643900  0.22232500  1
  F  F30  1  0.21046400  0.62356100  0.22232500  1
  F  F31  1  0.71046400  0.37643900  0.27767500  1
  F  F32  1  0.81139800  0.97843400  0.00234600  1
  F  F33  1  0.31139800  0.02156600  0.49765400  1
  F  F34  1  0.68860200  0.47843400  0.49765400  1
  F  F35  1  0.18860200  0.52156600  0.00234600  1
  F  F36  1  0.18860200  0.02156600  0.99765400  1
  F  F37  1  0.68860200  0.97843400  0.50234600  1
  F  F38  1  0.31139800  0.52156600  0.50234600  1
  F  F39  1  0.81139800  0.47843400  0.99765400  1
  F  F40  1  0.98110100  0.88351400  0.83976000  1
  F  F41  1  0.52139100  0.97046100  0.88394500  1
  F  F42  1  0.48110100  0.11648600  0.66024000  1
  F  F43  1  0.01889900  0.61648600  0.83976000  1
  F  F44  1  0.01889900  0.11648600  0.16024000  1
  F  F45  1  0.51889900  0.88351400  0.33976000  1
  F  F46  1  0.48110100  0.61648600  0.33976000  1
  F  F47  1  0.98110100  0.38351400  0.16024000  1
  F  F48  1  0.78821800  0.76224800  0.42372300  1
  F  F49  1  0.28821800  0.23775200  0.07627700  1
  F  F50  1  0.71178200  0.26224800  0.07627700  1
  F  F51  1  0.21178200  0.73775200  0.42372300  1
  F  F52  1  0.21178200  0.23775200  0.57627700  1
  F  F53  1  0.71178200  0.76224800  0.92372300  1
  F  F54  1  0.28821800  0.73775200  0.92372300  1
  F  F55  1  0.78821800  0.26224800  0.57627700  1
  F  F56  1  0.78529200  0.59492500  0.18443200  1
  F  F57  1  0.28529200  0.40507500  0.31556800  1
  F  F58  1  0.71470800  0.09492500  0.31556800  1
  F  F59  1  0.21470800  0.90507500  0.18443200  1
  F  F60  1  0.21470800  0.40507500  0.81556800  1
  F  F61  1  0.71470800  0.59492500  0.68443200  1
  F  F62  1  0.28529200  0.90507500  0.68443200  1
  F  F63  1  0.78529200  0.09492500  0.81556800  1
  F  F64  1  0.52139100  0.47046100  0.11605500  1
  F  F65  1  0.02139100  0.52953900  0.38394500  1
  F  F66  1  0.97860900  0.97046100  0.38394500  1
  F  F67  1  0.47860900  0.02953900  0.11605500  1
  F  F68  1  0.47860900  0.52953900  0.88394500  1
  F  F69  1  0.97860900  0.47046100  0.61605500  1
  F  F70  1  0.02139100  0.02953900  0.61605500  1
  F  F71  1  0.51889900  0.38351400  0.66024000  1
