# generated using pymatgen
data_Rb2TeO3
_symmetry_space_group_name_H-M   'P 1'
_cell_length_a   6.77615465
_cell_length_b   6.77615465
_cell_length_c   7.67497273
_cell_angle_alpha   85.64564406
_cell_angle_beta   85.64564406
_cell_angle_gamma   58.18684458
_symmetry_Int_Tables_number   1
_chemical_formula_structural   Rb2TeO3
_chemical_formula_sum   'Rb4 Te2 O6'
_cell_volume   298.33221588
_cell_formula_units_Z   2
loop_
 _symmetry_equiv_pos_site_id
 _symmetry_equiv_pos_as_xyz
  1  'x, y, z'
loop_
 _atom_site_type_symbol
 _atom_site_label
 _atom_site_symmetry_multiplicity
 _atom_site_fract_x
 _atom_site_fract_y
 _atom_site_fract_z
 _atom_site_occupancy
  Rb  Rb0  1  0.00000000  0.00000000  0.00000000  1
  Rb  Rb1  1  0.68286100  0.68286100  0.86172600  1
  Rb  Rb2  1  0.00000000  0.00000000  0.50000000  1
  Rb  Rb3  1  0.31713900  0.31713900  0.13827400  1
  Te  Te4  1  0.66306200  0.66306200  0.33984300  1
  Te  Te5  1  0.33693800  0.33693800  0.66015700  1
  O  O6  1  0.39116500  0.83482200  0.21209700  1
  O  O7  1  0.16517800  0.60883500  0.78790300  1
  O  O8  1  0.60883500  0.16517800  0.78790300  1
  O  O9  1  0.83482200  0.39116500  0.21209700  1
  O  O10  1  0.18090700  0.18090700  0.73081100  1
  O  O11  1  0.81909300  0.81909300  0.26918900  1
