# generated using pymatgen
data_TlPS3
_symmetry_space_group_name_H-M   'P 1'
_cell_length_a   7.15846103
_cell_length_b   7.15846103
_cell_length_c   7.15846103
_cell_angle_alpha   120.30260698
_cell_angle_beta   108.25444739
_cell_angle_gamma   100.49767170
_symmetry_Int_Tables_number   1
_chemical_formula_structural   TlPS3
_chemical_formula_sum   'Tl2 P2 S6'
_cell_volume   273.64940426
_cell_formula_units_Z   2
loop_
 _symmetry_equiv_pos_site_id
 _symmetry_equiv_pos_as_xyz
  1  'x, y, z'
loop_
 _atom_site_type_symbol
 _atom_site_label
 _atom_site_symmetry_multiplicity
 _atom_site_fract_x
 _atom_site_fract_y
 _atom_site_fract_z
 _atom_site_occupancy
  Tl  Tl0  1  0.25014600  0.00000000  0.25014600  1
  Tl  Tl1  1  0.74985400  0.00000000  0.74985400  1
  P  P2  1  0.33791900  0.33791900  0.00000000  1
  P  P3  1  0.66208100  0.66208100  0.00000000  1
  S  S4  1  0.22325800  0.98662800  0.76337000  1
  S  S5  1  0.77674200  0.54011200  0.76337000  1
  S  S6  1  0.31374900  0.50000000  0.81374900  1
  S  S7  1  0.68625100  0.50000000  0.18625100  1
  S  S8  1  0.77674200  0.01337200  0.23663000  1
  S  S9  1  0.22325800  0.45988800  0.23663000  1
