# generated using pymatgen
data_Ho2S3
_symmetry_space_group_name_H-M   'P 1'
_cell_length_a   4.01428100
_cell_length_b   10.15995700
_cell_length_c   17.60158681
_cell_angle_alpha   81.38872525
_cell_angle_beta   90.00000000
_cell_angle_gamma   90.00000000
_symmetry_Int_Tables_number   1
_chemical_formula_structural   Ho2S3
_chemical_formula_sum   'Ho12 S18'
_cell_volume   709.78665153
_cell_formula_units_Z   6
loop_
 _symmetry_equiv_pos_site_id
 _symmetry_equiv_pos_as_xyz
  1  'x, y, z'
loop_
 _atom_site_type_symbol
 _atom_site_label
 _atom_site_symmetry_multiplicity
 _atom_site_fract_x
 _atom_site_fract_y
 _atom_site_fract_z
 _atom_site_occupancy
  Ho  Ho0  1  0.75000000  0.54908900  0.88535100  1
  Ho  Ho1  1  0.25000000  0.45091100  0.11464900  1
  Ho  Ho2  1  0.75000000  0.48675600  0.60067900  1
  Ho  Ho3  1  0.25000000  0.51324400  0.39932100  1
  Ho  Ho4  1  0.75000000  0.18785700  0.27932100  1
  Ho  Ho5  1  0.25000000  0.81214300  0.72067900  1
  Ho  Ho6  1  0.75000000  0.82963100  0.21838200  1
  Ho  Ho7  1  0.25000000  0.17036900  0.78161800  1
  Ho  Ho8  1  0.75000000  0.12395800  0.57012800  1
  Ho  Ho9  1  0.25000000  0.87604200  0.42987200  1
  Ho  Ho10  1  0.75000000  0.18892300  0.97951000  1
  Ho  Ho11  1  0.25000000  0.81107700  0.02049000  1
  S  S12  1  0.75000000  0.36739800  0.46858400  1
  S  S13  1  0.25000000  0.63260200  0.53141600  1
  S  S14  1  0.75000000  0.31874200  0.81860200  1
  S  S15  1  0.25000000  0.68125800  0.18139800  1
  S  S16  1  0.75000000  0.95124700  0.07571400  1
  S  S17  1  0.25000000  0.04875300  0.92428600  1
  S  S18  1  0.75000000  0.71018200  0.36890400  1
  S  S19  1  0.25000000  0.28981800  0.63109600  1
  S  S20  1  0.75000000  0.00737000  0.73177100  1
  S  S21  1  0.25000000  0.99263000  0.26822900  1
  S  S22  1  0.75000000  0.63759400  0.71814700  1
  S  S23  1  0.25000000  0.36240600  0.28185300  1
  S  S24  1  0.25000000  0.94792600  0.57519800  1
  S  S25  1  0.75000000  0.05207400  0.42480200  1
  S  S26  1  0.25000000  0.73123800  0.87304500  1
  S  S27  1  0.75000000  0.26876200  0.12695500  1
  S  S28  1  0.25000000  0.38471100  0.96727800  1
  S  S29  1  0.75000000  0.61528900  0.03272200  1
