# generated using pymatgen
data_EuB4O7
_symmetry_space_group_name_H-M   'P 1'
_cell_length_a   4.27874900
_cell_length_b   4.47236000
_cell_length_c   10.84245200
_cell_angle_alpha   90.00000000
_cell_angle_beta   90.00000000
_cell_angle_gamma   90.00000000
_symmetry_Int_Tables_number   1
_chemical_formula_structural   EuB4O7
_chemical_formula_sum   'Eu2 B8 O14'
_cell_volume   207.48230945
_cell_formula_units_Z   2
loop_
 _symmetry_equiv_pos_site_id
 _symmetry_equiv_pos_as_xyz
  1  'x, y, z'
loop_
 _atom_site_type_symbol
 _atom_site_label
 _atom_site_symmetry_multiplicity
 _atom_site_fract_x
 _atom_site_fract_y
 _atom_site_fract_z
 _atom_site_occupancy
  Eu  Eu0  1  0.51034600  0.20965300  0.50000000  1
  Eu  Eu1  1  0.01034600  0.79034700  0.00000000  1
  B  B2  1  0.50564600  0.82255900  0.25113100  1
  B  B3  1  0.00564600  0.17744100  0.24886900  1
  B  B4  1  0.53145800  0.32594700  0.12161500  1
  B  B5  1  0.03145800  0.67405300  0.37838500  1
  B  B6  1  0.03145800  0.67405300  0.62161500  1
  B  B7  1  0.53145800  0.32594700  0.87838500  1
  B  B8  1  0.00564600  0.17744100  0.75113100  1
  B  B9  1  0.50564600  0.82255900  0.74886900  1
  O  O10  1  0.46110100  0.64205900  0.14222200  1
  O  O11  1  0.36589400  0.72938800  0.63569700  1
  O  O12  1  0.86589400  0.27061200  0.86430300  1
  O  O13  1  0.86589400  0.27061200  0.13569700  1
  O  O14  1  0.86179200  0.86945400  0.72102500  1
  O  O15  1  0.36179200  0.13054600  0.77897500  1
  O  O16  1  0.36179200  0.13054600  0.22102500  1
  O  O17  1  0.86179200  0.86945400  0.27897500  1
  O  O18  1  0.96110100  0.35794100  0.64222200  1
  O  O19  1  0.46110100  0.64205900  0.85777800  1
  O  O20  1  0.92487100  0.76885100  0.50000000  1
  O  O21  1  0.42487100  0.23114900  0.00000000  1
  O  O22  1  0.36589400  0.72938800  0.36430300  1
  O  O23  1  0.96110100  0.35794100  0.35777800  1
