# generated using pymatgen
data_Mn9Zn6Si4(SbO14)2
_symmetry_space_group_name_H-M   'P 1'
_cell_length_a   5.60434400
_cell_length_b   9.32202270
_cell_length_c   11.83127887
_cell_angle_alpha   86.82567436
_cell_angle_beta   76.35293076
_cell_angle_gamma   79.12103652
_symmetry_Int_Tables_number   1
_chemical_formula_structural   Mn9Zn6Si4(SbO14)2
_chemical_formula_sum   'Mn9 Zn6 Si4 Sb2 O28'
_cell_volume   589.82729470
_cell_formula_units_Z   1
loop_
 _symmetry_equiv_pos_site_id
 _symmetry_equiv_pos_as_xyz
  1  'x, y, z'
loop_
 _atom_site_type_symbol
 _atom_site_label
 _atom_site_symmetry_multiplicity
 _atom_site_fract_x
 _atom_site_fract_y
 _atom_site_fract_z
 _atom_site_occupancy
  Mn  Mn0  1  0.63669600  0.65093400  0.29186700  1
  Mn  Mn1  1  0.00000000  0.00000000  0.00000000  1
  Mn  Mn2  1  0.92205700  0.64163000  0.71658600  1
  Mn  Mn3  1  0.27953000  0.00170200  0.42513200  1
  Mn  Mn4  1  0.42637500  0.00549200  0.14396100  1
  Mn  Mn5  1  0.57362500  0.99450800  0.85603900  1
  Mn  Mn6  1  0.72047000  0.99829800  0.57486800  1
  Mn  Mn7  1  0.07794300  0.35837000  0.28341400  1
  Mn  Mn8  1  0.36330400  0.34906600  0.70813300  1
  Zn  Zn9  1  0.65881100  0.33974000  0.13786900  1
  Zn  Zn10  1  0.05229600  0.67382000  0.42742500  1
  Zn  Zn11  1  0.20308400  0.66461300  0.13839100  1
  Zn  Zn12  1  0.79691600  0.33538700  0.86160900  1
  Zn  Zn13  1  0.94770400  0.32618000  0.57257500  1
  Zn  Zn14  1  0.34118900  0.66026000  0.86213100  1
  Si  Si15  1  0.75746800  0.69206600  0.00335100  1
  Si  Si16  1  0.52129800  0.31293800  0.42353200  1
  Si  Si17  1  0.47870200  0.68706200  0.57646800  1
  Si  Si18  1  0.24253200  0.30793400  0.99664900  1
  Sb  Sb19  1  0.13861900  0.99856100  0.71981600  1
  Sb  Sb20  1  0.86138100  0.00143900  0.28018400  1
  O  O21  1  0.58633400  0.88752300  0.29101900  1
  O  O22  1  0.40710700  0.87064300  0.58893000  1
  O  O23  1  0.69093200  0.87247100  0.00458400  1
  O  O24  1  0.66930700  0.38909300  0.30341100  1
  O  O25  1  0.39085300  0.65080100  0.46021500  1
  O  O26  1  0.73153500  0.11794200  0.15233100  1
  O  O27  1  0.58171400  0.62608600  0.12137500  1
  O  O28  1  0.93995400  0.35492600  0.00060400  1
  O  O29  1  0.21968900  0.35896500  0.43601400  1
  O  O30  1  0.88349700  0.87566600  0.71414700  1
  O  O31  1  0.98166400  0.40778800  0.71486500  1
  O  O32  1  0.11837800  0.88587800  0.15392800  1
  O  O33  1  0.31134100  0.36722000  0.11246500  1
  O  O34  1  0.96905800  0.89405900  0.41745200  1
  O  O35  1  0.03094200  0.10594100  0.58254800  1
  O  O36  1  0.68865900  0.63278000  0.88753500  1
  O  O37  1  0.88162200  0.11412200  0.84607200  1
  O  O38  1  0.01833600  0.59221200  0.28513500  1
  O  O39  1  0.11650300  0.12433400  0.28585300  1
  O  O40  1  0.78031100  0.64103500  0.56398600  1
  O  O41  1  0.06004600  0.64507400  0.99939600  1
  O  O42  1  0.41828600  0.37391400  0.87862500  1
  O  O43  1  0.26846500  0.88205800  0.84766900  1
  O  O44  1  0.60914700  0.34919900  0.53978500  1
  O  O45  1  0.33069300  0.61090700  0.69658900  1
  O  O46  1  0.30906800  0.12752900  0.99541600  1
  O  O47  1  0.59289300  0.12935700  0.41107000  1
  O  O48  1  0.41366600  0.11247700  0.70898100  1
