# generated using pymatgen
data_Pr3SiAgS7
_symmetry_space_group_name_H-M   'P 1'
_cell_length_a   10.37719929
_cell_length_b   10.37719929
_cell_length_c   5.80916800
_cell_angle_alpha   90.00000000
_cell_angle_beta   90.00000000
_cell_angle_gamma   119.99999547
_symmetry_Int_Tables_number   1
_chemical_formula_structural   Pr3SiAgS7
_chemical_formula_sum   'Pr6 Si2 Ag2 S14'
_cell_volume   541.75746265
_cell_formula_units_Z   2
loop_
 _symmetry_equiv_pos_site_id
 _symmetry_equiv_pos_as_xyz
  1  'x, y, z'
loop_
 _atom_site_type_symbol
 _atom_site_label
 _atom_site_symmetry_multiplicity
 _atom_site_fract_x
 _atom_site_fract_y
 _atom_site_fract_z
 _atom_site_occupancy
  Pr  Pr0  1  0.12544700  0.35999300  0.24676400  1
  Pr  Pr1  1  0.87455300  0.64000700  0.74676400  1
  Pr  Pr2  1  0.64000700  0.76545400  0.24676400  1
  Pr  Pr3  1  0.23454600  0.87455300  0.24676400  1
  Pr  Pr4  1  0.76545400  0.12544700  0.74676400  1
  Pr  Pr5  1  0.35999300  0.23454600  0.74676400  1
  Si  Si6  1  0.33333300  0.66666700  0.66092200  1
  Si  Si7  1  0.66666700  0.33333300  0.16092200  1
  Ag  Ag8  1  0.00000000  0.00000000  0.30997200  1
  Ag  Ag9  1  0.00000000  0.00000000  0.80997200  1
  S  S10  1  0.33333300  0.66666700  0.02562800  1
  S  S11  1  0.66666700  0.33333300  0.52562800  1
  S  S12  1  0.41003400  0.52595900  0.51701600  1
  S  S13  1  0.58996600  0.47404100  0.01701600  1
  S  S14  1  0.47404100  0.88407600  0.51701600  1
  S  S15  1  0.11592400  0.58996600  0.51701600  1
  S  S16  1  0.88407600  0.41003400  0.01701600  1
  S  S17  1  0.52595900  0.11592400  0.01701600  1
  S  S18  1  0.09258300  0.26815700  0.76273400  1
  S  S19  1  0.90741700  0.73184300  0.26273400  1
  S  S20  1  0.73184300  0.82442600  0.76273400  1
  S  S21  1  0.17557400  0.90741700  0.76273400  1
  S  S22  1  0.82442600  0.09258300  0.26273400  1
  S  S23  1  0.26815700  0.17557400  0.26273400  1
