# generated using pymatgen
data_LiAgF6
_symmetry_space_group_name_H-M   'P 1'
_cell_length_a   8.09739988
_cell_length_b   8.09739988
_cell_length_c   8.09739988
_cell_angle_alpha   109.47122063
_cell_angle_beta   109.47122063
_cell_angle_gamma   109.47122063
_symmetry_Int_Tables_number   1
_chemical_formula_structural   LiAgF6
_chemical_formula_sum   'Li4 Ag4 F24'
_cell_volume   408.70962920
_cell_formula_units_Z   4
loop_
 _symmetry_equiv_pos_site_id
 _symmetry_equiv_pos_as_xyz
  1  'x, y, z'
loop_
 _atom_site_type_symbol
 _atom_site_label
 _atom_site_symmetry_multiplicity
 _atom_site_fract_x
 _atom_site_fract_y
 _atom_site_fract_z
 _atom_site_occupancy
  Li  Li0  1  0.50000000  0.50000000  0.00000000  1
  Li  Li1  1  0.00000000  0.00000000  0.00000000  1
  Li  Li2  1  0.00000000  0.50000000  0.50000000  1
  Li  Li3  1  0.50000000  0.00000000  0.50000000  1
  Ag  Ag4  1  0.50000000  0.00000000  0.00000000  1
  Ag  Ag5  1  0.00000000  0.50000000  0.00000000  1
  Ag  Ag6  1  0.50000000  0.50000000  0.50000000  1
  Ag  Ag7  1  0.00000000  0.00000000  0.50000000  1
  F  F8  1  0.94376200  0.72185700  0.02771600  1
  F  F9  1  0.52771600  0.80585900  0.08395400  1
  F  F10  1  0.27814300  0.97228400  0.05623800  1
  F  F11  1  0.91604600  0.47228400  0.19414100  1
  F  F12  1  0.77814300  0.72190500  0.30585900  1
  F  F13  1  0.27809500  0.69414100  0.22185700  1
  F  F14  1  0.44376200  0.41604600  0.22190500  1
  F  F15  1  0.97228400  0.05623800  0.27814300  1
  F  F16  1  0.69414100  0.22185700  0.27809500  1
  F  F17  1  0.19414100  0.91604600  0.47228400  1
  F  F18  1  0.58395400  0.77809500  0.55623800  1
  F  F19  1  0.77809500  0.55623800  0.58395400  1
  F  F20  1  0.22190500  0.44376200  0.41604600  1
  F  F21  1  0.41604600  0.22190500  0.44376200  1
  F  F22  1  0.80585900  0.08395400  0.52771600  1
  F  F23  1  0.30585900  0.77814300  0.72190500  1
  F  F24  1  0.02771600  0.94376200  0.72185700  1
  F  F25  1  0.55623800  0.58395400  0.77809500  1
  F  F26  1  0.72190500  0.30585900  0.77814300  1
  F  F27  1  0.22185700  0.27809500  0.69414100  1
  F  F28  1  0.08395400  0.52771600  0.80585900  1
  F  F29  1  0.72185700  0.02771600  0.94376200  1
  F  F30  1  0.47228400  0.19414100  0.91604600  1
  F  F31  1  0.05623800  0.27814300  0.97228400  1
