# generated using pymatgen
data_Y6Cu11O24
_symmetry_space_group_name_H-M   'P 1'
_cell_length_a   6.33106900
_cell_length_b   8.14865729
_cell_length_c   10.04217312
_cell_angle_alpha   113.77278182
_cell_angle_beta   98.42748798
_cell_angle_gamma   89.23081427
_symmetry_Int_Tables_number   1
_chemical_formula_structural   Y6Cu11O24
_chemical_formula_sum   'Y6 Cu11 O24'
_cell_volume   468.39876604
_cell_formula_units_Z   1
loop_
 _symmetry_equiv_pos_site_id
 _symmetry_equiv_pos_as_xyz
  1  'x, y, z'
loop_
 _atom_site_type_symbol
 _atom_site_label
 _atom_site_symmetry_multiplicity
 _atom_site_fract_x
 _atom_site_fract_y
 _atom_site_fract_z
 _atom_site_occupancy
  Y  Y0  1  0.57752300  0.20903500  0.67155300  1
  Y  Y1  1  0.42247700  0.79096500  0.32844700  1
  Y  Y2  1  0.92382000  0.53551600  0.32351900  1
  Y  Y3  1  0.75318400  0.13156900  0.99995400  1
  Y  Y4  1  0.24681600  0.86843100  0.00004600  1
  Y  Y5  1  0.07618000  0.46448400  0.67648100  1
  Cu  Cu6  1  0.15962600  0.17570000  0.83972500  1
  Cu  Cu7  1  0.33526800  0.82991900  0.66586500  1
  Cu  Cu8  1  0.00000000  0.00000000  0.50000000  1
  Cu  Cu9  1  0.50000000  0.50000000  0.00000000  1
  Cu  Cu10  1  0.32784500  0.33147700  0.16646900  1
  Cu  Cu11  1  0.83663200  0.83263400  0.66350300  1
  Cu  Cu12  1  0.16336800  0.16736600  0.33649700  1
  Cu  Cu13  1  0.67215500  0.66852300  0.83353100  1
  Cu  Cu14  1  0.50000000  0.50000000  0.50000000  1
  Cu  Cu15  1  0.66473200  0.17008100  0.33413500  1
  Cu  Cu16  1  0.84037400  0.82430000  0.16027500  1
  O  O17  1  0.31492900  0.35971300  0.82464600  1
  O  O18  1  0.29823500  0.65456200  0.08708400  1
  O  O19  1  0.96523300  0.18640800  0.68189200  1
  O  O20  1  0.03476700  0.81359200  0.31810800  1
  O  O21  1  0.70176500  0.34543800  0.91291600  1
  O  O22  1  0.29481300  0.97419700  0.55666000  1
  O  O23  1  0.70518700  0.02580300  0.44334000  1
  O  O24  1  0.68507100  0.64028700  0.17535400  1
  O  O25  1  0.03673300  0.33267800  0.11853500  1
  O  O26  1  0.01058700  0.98250800  0.84283800  1
  O  O27  1  0.30231800  0.52302000  0.34477700  1
  O  O28  1  0.60689200  0.96306200  0.74489500  1
  O  O29  1  0.06339000  0.69679300  0.58289100  1
  O  O30  1  0.36077100  0.14607400  0.98680200  1
  O  O31  1  0.66237000  0.68547000  0.48543200  1
  O  O32  1  0.62494300  0.31339200  0.22288900  1
  O  O33  1  0.98941300  0.01749200  0.15716200  1
  O  O34  1  0.96326700  0.66732200  0.88146500  1
  O  O35  1  0.37505700  0.68660800  0.77711100  1
  O  O36  1  0.93661000  0.30320700  0.41710900  1
  O  O37  1  0.63922900  0.85392600  0.01319800  1
  O  O38  1  0.69768200  0.47698000  0.65522300  1
  O  O39  1  0.39310800  0.03693800  0.25510500  1
  O  O40  1  0.33763000  0.31453000  0.51456800  1
