# generated using pymatgen
data_ErPPd
_symmetry_space_group_name_H-M   'P 1'
_cell_length_a   3.98552900
_cell_length_b   6.88349900
_cell_length_c   7.74532600
_cell_angle_alpha   90.00000000
_cell_angle_beta   90.00000000
_cell_angle_gamma   90.00000000
_symmetry_Int_Tables_number   1
_chemical_formula_structural   ErPPd
_chemical_formula_sum   'Er4 P4 Pd4'
_cell_volume   212.48825455
_cell_formula_units_Z   4
loop_
 _symmetry_equiv_pos_site_id
 _symmetry_equiv_pos_as_xyz
  1  'x, y, z'
loop_
 _atom_site_type_symbol
 _atom_site_label
 _atom_site_symmetry_multiplicity
 _atom_site_fract_x
 _atom_site_fract_y
 _atom_site_fract_z
 _atom_site_occupancy
  Er  Er0  1  0.25000000  0.03139700  0.18723300  1
  Er  Er1  1  0.75000000  0.96860300  0.81276700  1
  Er  Er2  1  0.25000000  0.53139700  0.31276700  1
  Er  Er3  1  0.75000000  0.46860300  0.68723300  1
  P  P4  1  0.25000000  0.74916900  0.62326500  1
  P  P5  1  0.75000000  0.25083100  0.37673500  1
  P  P6  1  0.25000000  0.24916900  0.87673500  1
  P  P7  1  0.75000000  0.75083100  0.12326500  1
  Pd  Pd8  1  0.75000000  0.35255700  0.06113100  1
  Pd  Pd9  1  0.25000000  0.64744300  0.93886900  1
  Pd  Pd10  1  0.75000000  0.85255700  0.43886900  1
  Pd  Pd11  1  0.25000000  0.14744300  0.56113100  1
