# generated using pymatgen
data_Ag2Cl3
_symmetry_space_group_name_H-M   'P 1'
_cell_length_a   7.22932553
_cell_length_b   7.22932553
_cell_length_c   7.22932503
_cell_angle_alpha   55.23818397
_cell_angle_beta   55.23818397
_cell_angle_gamma   55.23817539
_symmetry_Int_Tables_number   1
_chemical_formula_structural   Ag2Cl3
_chemical_formula_sum   'Ag4 Cl6'
_cell_volume   237.59344666
_cell_formula_units_Z   2
loop_
 _symmetry_equiv_pos_site_id
 _symmetry_equiv_pos_as_xyz
  1  'x, y, z'
loop_
 _atom_site_type_symbol
 _atom_site_label
 _atom_site_symmetry_multiplicity
 _atom_site_fract_x
 _atom_site_fract_y
 _atom_site_fract_z
 _atom_site_occupancy
  Ag  Ag0  1  0.84300000  0.84300000  0.84300000  1
  Ag  Ag1  1  0.65700000  0.65700000  0.65700000  1
  Ag  Ag2  1  0.34300000  0.34300000  0.34300000  1
  Ag  Ag3  1  0.15700000  0.15700000  0.15700000  1
  Cl  Cl4  1  0.25000000  0.56763500  0.93236500  1
  Cl  Cl5  1  0.56763500  0.93236500  0.25000000  1
  Cl  Cl6  1  0.93236500  0.25000000  0.56763500  1
  Cl  Cl7  1  0.06763500  0.75000000  0.43236500  1
  Cl  Cl8  1  0.43236500  0.06763500  0.75000000  1
  Cl  Cl9  1  0.75000000  0.43236500  0.06763500  1
