# generated using pymatgen
data_K2TeO3
_symmetry_space_group_name_H-M   'P 1'
_cell_length_a   6.40495771
_cell_length_b   6.40495771
_cell_length_c   7.20373500
_cell_angle_alpha   90.00000000
_cell_angle_beta   90.00000000
_cell_angle_gamma   119.99999697
_symmetry_Int_Tables_number   1
_chemical_formula_structural   K2TeO3
_chemical_formula_sum   'K4 Te2 O6'
_cell_volume   255.92982869
_cell_formula_units_Z   2
loop_
 _symmetry_equiv_pos_site_id
 _symmetry_equiv_pos_as_xyz
  1  'x, y, z'
loop_
 _atom_site_type_symbol
 _atom_site_label
 _atom_site_symmetry_multiplicity
 _atom_site_fract_x
 _atom_site_fract_y
 _atom_site_fract_z
 _atom_site_occupancy
  K  K0  1  0.00000000  0.00000000  0.00000000  1
  K  K1  1  0.33333300  0.66666700  0.62417200  1
  K  K2  1  0.00000000  0.00000000  0.50000000  1
  K  K3  1  0.66666700  0.33333300  0.37582800  1
  Te  Te4  1  0.66666700  0.33333300  0.85407700  1
  Te  Te5  1  0.33333300  0.66666700  0.14592300  1
  O  O6  1  0.89612000  0.27599600  0.73578100  1
  O  O7  1  0.37987600  0.10388000  0.73578100  1
  O  O8  1  0.72400400  0.62012400  0.73578100  1
  O  O9  1  0.10388000  0.72400400  0.26421900  1
  O  O10  1  0.27599600  0.37987600  0.26421900  1
  O  O11  1  0.62012400  0.89612000  0.26421900  1
