# generated using pymatgen
data_SrTiH4(OF3)2
_symmetry_space_group_name_H-M   'P 1'
_cell_length_a   9.86519800
_cell_length_b   6.07349200
_cell_length_c   11.92594965
_cell_angle_alpha   69.24562830
_cell_angle_beta   90.00000000
_cell_angle_gamma   90.00000000
_symmetry_Int_Tables_number   1
_chemical_formula_structural   SrTiH4(OF3)2
_chemical_formula_sum   'Sr4 Ti4 H16 O8 F24'
_cell_volume   668.18865058
_cell_formula_units_Z   4
loop_
 _symmetry_equiv_pos_site_id
 _symmetry_equiv_pos_as_xyz
  1  'x, y, z'
loop_
 _atom_site_type_symbol
 _atom_site_label
 _atom_site_symmetry_multiplicity
 _atom_site_fract_x
 _atom_site_fract_y
 _atom_site_fract_z
 _atom_site_occupancy
  Sr  Sr0  1  0.31322000  0.71836900  0.45072600  1
  Sr  Sr1  1  0.81322000  0.28163100  0.04927400  1
  Sr  Sr2  1  0.18678000  0.71836900  0.95072600  1
  Sr  Sr3  1  0.68678000  0.28163100  0.54927400  1
  Ti  Ti4  1  0.03576900  0.36157900  0.73195200  1
  Ti  Ti5  1  0.53576900  0.63842100  0.76804800  1
  Ti  Ti6  1  0.46423100  0.36157900  0.23195200  1
  Ti  Ti7  1  0.96423100  0.63842100  0.26804800  1
  H  H8  1  0.35347300  0.17024400  0.94715000  1
  H  H9  1  0.60781600  0.72423600  0.32773700  1
  H  H10  1  0.36441700  0.02367900  0.08480900  1
  H  H11  1  0.63250600  0.82608800  0.42997800  1
  H  H12  1  0.85347300  0.82975600  0.55285000  1
  H  H13  1  0.13250600  0.17391200  0.07002200  1
  H  H14  1  0.86441700  0.97632100  0.41519100  1
  H  H15  1  0.89218400  0.72423600  0.82773700  1
  H  H16  1  0.10781600  0.27576400  0.17226300  1
  H  H17  1  0.13558300  0.02367900  0.58480900  1
  H  H18  1  0.86749400  0.82608800  0.92997800  1
  H  H19  1  0.14652700  0.17024400  0.44715000  1
  H  H20  1  0.36749400  0.17391200  0.57002200  1
  H  H21  1  0.63558300  0.97632100  0.91519100  1
  H  H22  1  0.39218400  0.27576400  0.67226300  1
  H  H23  1  0.64652700  0.82975600  0.05285000  1
  O  O24  1  0.58170300  0.70425600  0.41028500  1
  O  O25  1  0.30712500  0.04873500  0.01414700  1
  O  O26  1  0.80712500  0.95126500  0.48585300  1
  O  O27  1  0.91829700  0.70425600  0.91028500  1
  O  O28  1  0.08170300  0.29574400  0.08971500  1
  O  O29  1  0.19287500  0.04873500  0.51414700  1
  O  O30  1  0.69287500  0.95126500  0.98585300  1
  O  O31  1  0.41829700  0.29574400  0.58971500  1
  F  F32  1  0.93950300  0.22815100  0.87942100  1
  F  F33  1  0.13788900  0.48203300  0.59049500  1
  F  F34  1  0.43429200  0.35578900  0.81364100  1
  F  F35  1  0.65650000  0.50463000  0.68643700  1
  F  F36  1  0.09038600  0.77847000  0.34045400  1
  F  F37  1  0.15650000  0.49537000  0.81356300  1
  F  F38  1  0.85537500  0.91709800  0.22575800  1
  F  F39  1  0.93429200  0.64421100  0.68635900  1
  F  F40  1  0.63788900  0.51796700  0.90950500  1
  F  F41  1  0.43950300  0.77184900  0.62057900  1
  F  F42  1  0.35537500  0.08290200  0.27424200  1
  F  F43  1  0.59038600  0.22153000  0.15954600  1
  F  F44  1  0.40961400  0.77847000  0.84045400  1
  F  F45  1  0.64462500  0.91709800  0.72575800  1
  F  F46  1  0.56049700  0.22815100  0.37942100  1
  F  F47  1  0.36211100  0.48203300  0.09049500  1
  F  F48  1  0.06570800  0.35578900  0.31364100  1
  F  F49  1  0.14462500  0.08290200  0.77424200  1
  F  F50  1  0.84350000  0.50463000  0.18643700  1
  F  F51  1  0.90961400  0.22153000  0.65954600  1
  F  F52  1  0.34350000  0.49537000  0.31356300  1
  F  F53  1  0.56570800  0.64421100  0.18635900  1
  F  F54  1  0.86211100  0.51796700  0.40950500  1
  F  F55  1  0.06049700  0.77184900  0.12057900  1
