# generated using pymatgen
data_Li2V3SbO8
_symmetry_space_group_name_H-M   'P 1'
_cell_length_a   8.61757300
_cell_length_b   8.61757300
_cell_length_c   8.61757300
_cell_angle_alpha   90.00000000
_cell_angle_beta   90.00000000
_cell_angle_gamma   90.00000000
_symmetry_Int_Tables_number   1
_chemical_formula_structural   Li2V3SbO8
_chemical_formula_sum   'Li8 V12 Sb4 O32'
_cell_volume   639.96306997
_cell_formula_units_Z   4
loop_
 _symmetry_equiv_pos_site_id
 _symmetry_equiv_pos_as_xyz
  1  'x, y, z'
loop_
 _atom_site_type_symbol
 _atom_site_label
 _atom_site_symmetry_multiplicity
 _atom_site_fract_x
 _atom_site_fract_y
 _atom_site_fract_z
 _atom_site_occupancy
  Li  Li0  1  0.00342200  0.00342200  0.00342200  1
  Li  Li1  1  0.24657800  0.24657800  0.24657800  1
  Li  Li2  1  0.25342200  0.75342200  0.74657800  1
  Li  Li3  1  0.49657800  0.99657800  0.50342200  1
  Li  Li4  1  0.50342200  0.49657800  0.99657800  1
  Li  Li5  1  0.74657800  0.25342200  0.75342200  1
  Li  Li6  1  0.75342200  0.74657800  0.25342200  1
  Li  Li7  1  0.99657800  0.50342200  0.49657800  1
  V  V8  1  0.11787800  0.13212200  0.62500000  1
  V  V9  1  0.12500000  0.38212200  0.86787800  1
  V  V10  1  0.13212200  0.62500000  0.11787800  1
  V  V11  1  0.36787800  0.37500000  0.61787800  1
  V  V12  1  0.37500000  0.61787800  0.36787800  1
  V  V13  1  0.38212200  0.86787800  0.12500000  1
  V  V14  1  0.61787800  0.36787800  0.37500000  1
  V  V15  1  0.62500000  0.11787800  0.13212200  1
  V  V16  1  0.63212200  0.87500000  0.88212200  1
  V  V17  1  0.86787800  0.12500000  0.38212200  1
  V  V18  1  0.87500000  0.88212200  0.63212200  1
  V  V19  1  0.88212200  0.63212200  0.87500000  1
  Sb  Sb20  1  0.12500000  0.87500000  0.37500000  1
  Sb  Sb21  1  0.37500000  0.12500000  0.87500000  1
  Sb  Sb22  1  0.62500000  0.62500000  0.62500000  1
  Sb  Sb23  1  0.87500000  0.37500000  0.12500000  1
  O  O24  1  0.10737000  0.10994300  0.38176900  1
  O  O25  1  0.11823100  0.89263000  0.60994300  1
  O  O26  1  0.11582800  0.61582800  0.88417200  1
  O  O27  1  0.14005700  0.14263000  0.86823100  1
  O  O28  1  0.10994300  0.38176900  0.10737000  1
  O  O29  1  0.13417200  0.36582800  0.63417200  1
  O  O30  1  0.13176900  0.64005700  0.35737000  1
  O  O31  1  0.14263000  0.86823100  0.14005700  1
  O  O32  1  0.35737000  0.13176900  0.64005700  1
  O  O33  1  0.36823100  0.35994300  0.85737000  1
  O  O34  1  0.36582800  0.63417200  0.13417200  1
  O  O35  1  0.39005700  0.61823100  0.60737000  1
  O  O36  1  0.35994300  0.85737000  0.36823100  1
  O  O37  1  0.38417200  0.38417200  0.38417200  1
  O  O38  1  0.38176900  0.10737000  0.10994300  1
  O  O39  1  0.39263000  0.89005700  0.88176900  1
  O  O40  1  0.60737000  0.39005700  0.61823100  1
  O  O41  1  0.61823100  0.60737000  0.39005700  1
  O  O42  1  0.61582800  0.88417200  0.11582800  1
  O  O43  1  0.64005700  0.35737000  0.13176900  1
  O  O44  1  0.60994300  0.11823100  0.89263000  1
  O  O45  1  0.63417200  0.13417200  0.36582800  1
  O  O46  1  0.63176900  0.85994300  0.64263000  1
  O  O47  1  0.64263000  0.63176900  0.85994300  1
  O  O48  1  0.85737000  0.36823100  0.35994300  1
  O  O49  1  0.86823100  0.14005700  0.14263000  1
  O  O50  1  0.86582800  0.86582800  0.86582800  1
  O  O51  1  0.89005700  0.88176900  0.39263000  1
  O  O52  1  0.85994300  0.64263000  0.63176900  1
  O  O53  1  0.88417200  0.11582800  0.61582800  1
  O  O54  1  0.88176900  0.39263000  0.89005700  1
  O  O55  1  0.89263000  0.60994300  0.11823100  1
