# generated using pymatgen
data_PmCl3
_symmetry_space_group_name_H-M   'P 1'
_cell_length_a   9.70714820
_cell_length_b   9.70714820
_cell_length_c   3.74699100
_cell_angle_alpha   90.00000000
_cell_angle_beta   90.00000000
_cell_angle_gamma   120.00000138
_symmetry_Int_Tables_number   1
_chemical_formula_structural   PmCl3
_chemical_formula_sum   'Pm2 Cl6'
_cell_volume   305.77121293
_cell_formula_units_Z   2
loop_
 _symmetry_equiv_pos_site_id
 _symmetry_equiv_pos_as_xyz
  1  'x, y, z'
loop_
 _atom_site_type_symbol
 _atom_site_label
 _atom_site_symmetry_multiplicity
 _atom_site_fract_x
 _atom_site_fract_y
 _atom_site_fract_z
 _atom_site_occupancy
  Pm  Pm0  1  0.66666700  0.33333300  0.25000000  1
  Pm  Pm1  1  0.33333300  0.66666700  0.75000000  1
  Cl  Cl2  1  0.78639200  0.21360800  0.75000000  1
  Cl  Cl3  1  0.42721500  0.21360800  0.75000000  1
  Cl  Cl4  1  0.78639200  0.57278500  0.75000000  1
  Cl  Cl5  1  0.21360800  0.78639200  0.25000000  1
  Cl  Cl6  1  0.57278500  0.78639200  0.25000000  1
  Cl  Cl7  1  0.21360800  0.42721500  0.25000000  1
