# generated using pymatgen
data_RbBaTaS4
_symmetry_space_group_name_H-M   'P 1'
_cell_length_a   7.11535300
_cell_length_b   9.46771400
_cell_length_c   12.64334600
_cell_angle_alpha   90.00000000
_cell_angle_beta   90.00000000
_cell_angle_gamma   90.00000000
_symmetry_Int_Tables_number   1
_chemical_formula_structural   RbBaTaS4
_chemical_formula_sum   'Rb4 Ba4 Ta4 S16'
_cell_volume   851.73325503
_cell_formula_units_Z   4
loop_
 _symmetry_equiv_pos_site_id
 _symmetry_equiv_pos_as_xyz
  1  'x, y, z'
loop_
 _atom_site_type_symbol
 _atom_site_label
 _atom_site_symmetry_multiplicity
 _atom_site_fract_x
 _atom_site_fract_y
 _atom_site_fract_z
 _atom_site_occupancy
  Rb  Rb0  1  0.75000000  0.36298600  0.08840000  1
  Rb  Rb1  1  0.25000000  0.13701400  0.58840000  1
  Rb  Rb2  1  0.75000000  0.86298600  0.41160000  1
  Rb  Rb3  1  0.25000000  0.63701400  0.91160000  1
  Ba  Ba4  1  0.75000000  0.02017300  0.82520400  1
  Ba  Ba5  1  0.25000000  0.47982700  0.32520400  1
  Ba  Ba6  1  0.75000000  0.52017300  0.67479600  1
  Ba  Ba7  1  0.25000000  0.97982700  0.17479600  1
  Ta  Ta8  1  0.75000000  0.26951000  0.42124200  1
  Ta  Ta9  1  0.25000000  0.23049000  0.92124200  1
  Ta  Ta10  1  0.75000000  0.76951000  0.07875800  1
  Ta  Ta11  1  0.25000000  0.73049000  0.57875800  1
  S  S12  1  0.75000000  0.19406500  0.59293100  1
  S  S13  1  0.25000000  0.30593500  0.09293100  1
  S  S14  1  0.75000000  0.69406500  0.90706900  1
  S  S15  1  0.25000000  0.80593500  0.40706900  1
  S  S16  1  0.75000000  0.01046500  0.08453000  1
  S  S17  1  0.25000000  0.48953500  0.58453000  1
  S  S18  1  0.75000000  0.51046500  0.41547000  1
  S  S19  1  0.25000000  0.98953500  0.91547000  1
  S  S20  1  0.00830500  0.18432700  0.33745000  1
  S  S21  1  0.99169500  0.31567300  0.83745000  1
  S  S22  1  0.49169500  0.68432700  0.16255000  1
  S  S23  1  0.50830500  0.81567300  0.66255000  1
  S  S24  1  0.99169500  0.81567300  0.66255000  1
  S  S25  1  0.00830500  0.68432700  0.16255000  1
  S  S26  1  0.50830500  0.31567300  0.83745000  1
  S  S27  1  0.49169500  0.18432700  0.33745000  1
