# generated using pymatgen
data_CoPO4
_symmetry_space_group_name_H-M   'P 1'
_cell_length_a   5.08148163
_cell_length_b   5.08148163
_cell_length_c   8.76899806
_cell_angle_alpha   76.13824643
_cell_angle_beta   76.13824643
_cell_angle_gamma   63.35840381
_symmetry_Int_Tables_number   1
_chemical_formula_structural   CoPO4
_chemical_formula_sum   'Co2 P2 O8'
_cell_volume   194.20222630
_cell_formula_units_Z   2
loop_
 _symmetry_equiv_pos_site_id
 _symmetry_equiv_pos_as_xyz
  1  'x, y, z'
loop_
 _atom_site_type_symbol
 _atom_site_label
 _atom_site_symmetry_multiplicity
 _atom_site_fract_x
 _atom_site_fract_y
 _atom_site_fract_z
 _atom_site_occupancy
  Co  Co0  1  0.69894600  0.30422100  0.74746700  1
  Co  Co1  1  0.30422100  0.69894600  0.24746700  1
  P  P2  1  0.92683000  0.32246100  0.37422000  1
  P  P3  1  0.32246100  0.92683000  0.87422000  1
  O  O4  1  0.69886100  0.43732900  0.25749600  1
  O  O5  1  0.77710900  0.23083300  0.54074300  1
  O  O6  1  0.05511000  0.20690600  0.81475600  1
  O  O7  1  0.56057500  0.03233900  0.88335400  1
  O  O8  1  0.20690600  0.05511000  0.31475600  1
  O  O9  1  0.43732900  0.69886100  0.75749600  1
  O  O10  1  0.03233900  0.56057500  0.38335400  1
  O  O11  1  0.23083300  0.77710900  0.04074300  1
