# generated using pymatgen
data_Hg3(AsO4)2
_symmetry_space_group_name_H-M   'P 1'
_cell_length_a   12.03453000
_cell_length_b   6.67688400
_cell_length_c   10.37951455
_cell_angle_alpha   80.65970252
_cell_angle_beta   90.00000000
_cell_angle_gamma   90.00000000
_symmetry_Int_Tables_number   1
_chemical_formula_structural   Hg3(AsO4)2
_chemical_formula_sum   'Hg12 As8 O32'
_cell_volume   822.96911800
_cell_formula_units_Z   4
loop_
 _symmetry_equiv_pos_site_id
 _symmetry_equiv_pos_as_xyz
  1  'x, y, z'
loop_
 _atom_site_type_symbol
 _atom_site_label
 _atom_site_symmetry_multiplicity
 _atom_site_fract_x
 _atom_site_fract_y
 _atom_site_fract_z
 _atom_site_occupancy
  Hg  Hg0  1  0.17114900  0.08916500  0.65801800  1
  Hg  Hg1  1  0.67114900  0.41083500  0.34198200  1
  Hg  Hg2  1  0.82885100  0.91083500  0.34198200  1
  Hg  Hg3  1  0.32885100  0.58916500  0.65801800  1
  Hg  Hg4  1  0.89793400  0.67582100  0.70096000  1
  Hg  Hg5  1  0.39793400  0.82417900  0.29904000  1
  Hg  Hg6  1  0.10206600  0.32417900  0.29904000  1
  Hg  Hg7  1  0.60206600  0.17582100  0.70096000  1
  Hg  Hg8  1  0.11898200  0.83024600  0.04556600  1
  Hg  Hg9  1  0.61898200  0.66975400  0.95443400  1
  Hg  Hg10  1  0.88101800  0.16975400  0.95443400  1
  Hg  Hg11  1  0.38101800  0.33024600  0.04556600  1
  As  As12  1  0.36695600  0.90609000  0.90187500  1
  As  As13  1  0.86695600  0.59391000  0.09812500  1
  As  As14  1  0.63304400  0.09391000  0.09812500  1
  As  As15  1  0.13304400  0.40609000  0.90187500  1
  As  As16  1  0.90522000  0.19873500  0.60602400  1
  As  As17  1  0.40522000  0.30126500  0.39397600  1
  As  As18  1  0.09478000  0.80126500  0.39397600  1
  As  As19  1  0.59478000  0.69873500  0.60602400  1
  O  O20  1  0.44560600  0.11950400  0.87049200  1
  O  O21  1  0.94560600  0.38049600  0.12950800  1
  O  O22  1  0.55439400  0.88049600  0.12950800  1
  O  O23  1  0.05439400  0.61950400  0.87049200  1
  O  O24  1  0.44213600  0.68080100  0.91402300  1
  O  O25  1  0.94213600  0.81919900  0.08597700  1
  O  O26  1  0.55786400  0.31919900  0.08597700  1
  O  O27  1  0.05786400  0.18080100  0.91402300  1
  O  O28  1  0.27317900  0.86946400  0.77964400  1
  O  O29  1  0.77317900  0.63053600  0.22035600  1
  O  O30  1  0.72682100  0.13053600  0.22035600  1
  O  O31  1  0.22682100  0.36946400  0.77964400  1
  O  O32  1  0.29102400  0.91531200  0.04443600  1
  O  O33  1  0.79102400  0.58468800  0.95556400  1
  O  O34  1  0.70897600  0.08468800  0.95556400  1
  O  O35  1  0.20897600  0.41531200  0.04443600  1
  O  O36  1  0.81367700  0.18185000  0.48383000  1
  O  O37  1  0.31367700  0.31815000  0.51617000  1
  O  O38  1  0.18632300  0.81815000  0.51617000  1
  O  O39  1  0.68632300  0.68185000  0.48383000  1
  O  O40  1  0.46130600  0.76141100  0.54719300  1
  O  O41  1  0.96130600  0.73858900  0.45280700  1
  O  O42  1  0.53869400  0.23858900  0.45280700  1
  O  O43  1  0.03869400  0.26141100  0.54719300  1
  O  O44  1  0.58269000  0.48078300  0.72326200  1
  O  O45  1  0.08269000  0.01921700  0.27673800  1
  O  O46  1  0.41731000  0.51921700  0.27673800  1
  O  O47  1  0.91731000  0.98078300  0.72326200  1
  O  O48  1  0.64309300  0.86721000  0.70634500  1
  O  O49  1  0.14309300  0.63279000  0.29365500  1
  O  O50  1  0.35690700  0.13279000  0.29365500  1
  O  O51  1  0.85690700  0.36721000  0.70634500  1
