# generated using pymatgen
data_CoTc3
_symmetry_space_group_name_H-M   'P 1'
_cell_length_a   5.37801918
_cell_length_b   5.37801918
_cell_length_c   4.30299100
_cell_angle_alpha   90.00000000
_cell_angle_beta   90.00000000
_cell_angle_gamma   119.99998996
_symmetry_Int_Tables_number   1
_chemical_formula_structural   CoTc3
_chemical_formula_sum   'Co2 Tc6'
_cell_volume   107.78189314
_cell_formula_units_Z   2
loop_
 _symmetry_equiv_pos_site_id
 _symmetry_equiv_pos_as_xyz
  1  'x, y, z'
loop_
 _atom_site_type_symbol
 _atom_site_label
 _atom_site_symmetry_multiplicity
 _atom_site_fract_x
 _atom_site_fract_y
 _atom_site_fract_z
 _atom_site_occupancy
  Co  Co0  1  0.33333300  0.66666700  0.75000000  1
  Co  Co1  1  0.66666700  0.33333300  0.25000000  1
  Tc  Tc2  1  0.16710700  0.33421400  0.25000000  1
  Tc  Tc3  1  0.66578600  0.83289300  0.25000000  1
  Tc  Tc4  1  0.16710700  0.83289300  0.25000000  1
  Tc  Tc5  1  0.83289300  0.66578600  0.75000000  1
  Tc  Tc6  1  0.33421400  0.16710700  0.75000000  1
  Tc  Tc7  1  0.83289300  0.16710700  0.75000000  1
