# generated using pymatgen
data_Ba4PtO6
_symmetry_space_group_name_H-M   'P 1'
_cell_length_a   7.37487406
_cell_length_b   7.37487406
_cell_length_c   7.37487342
_cell_angle_alpha   89.63498609
_cell_angle_beta   89.63498609
_cell_angle_gamma   89.63498599
_symmetry_Int_Tables_number   1
_chemical_formula_structural   Ba4PtO6
_chemical_formula_sum   'Ba8 Pt2 O12'
_cell_volume   401.08595906
_cell_formula_units_Z   2
loop_
 _symmetry_equiv_pos_site_id
 _symmetry_equiv_pos_as_xyz
  1  'x, y, z'
loop_
 _atom_site_type_symbol
 _atom_site_label
 _atom_site_symmetry_multiplicity
 _atom_site_fract_x
 _atom_site_fract_y
 _atom_site_fract_z
 _atom_site_occupancy
  Ba  Ba0  1  0.25000000  0.25000000  0.25000000  1
  Ba  Ba1  1  0.75000000  0.75000000  0.75000000  1
  Ba  Ba2  1  0.75000000  0.12000800  0.37999200  1
  Ba  Ba3  1  0.37999200  0.75000000  0.12000800  1
  Ba  Ba4  1  0.12000800  0.37999200  0.75000000  1
  Ba  Ba5  1  0.25000000  0.87999200  0.62000800  1
  Ba  Ba6  1  0.62000800  0.25000000  0.87999200  1
  Ba  Ba7  1  0.87999200  0.62000800  0.25000000  1
  Pt  Pt8  1  0.00000000  0.00000000  0.00000000  1
  Pt  Pt9  1  0.50000000  0.50000000  0.50000000  1
  O  O10  1  0.57277300  0.77182800  0.43929500  1
  O  O11  1  0.43929500  0.57277300  0.77182800  1
  O  O12  1  0.77182800  0.43929500  0.57277300  1
  O  O13  1  0.92722700  0.06070500  0.72817200  1
  O  O14  1  0.72817200  0.92722700  0.06070500  1
  O  O15  1  0.06070500  0.72817200  0.92722700  1
  O  O16  1  0.42722700  0.22817200  0.56070500  1
  O  O17  1  0.56070500  0.42722700  0.22817200  1
  O  O18  1  0.22817200  0.56070500  0.42722700  1
  O  O19  1  0.07277300  0.93929500  0.27182800  1
  O  O20  1  0.93929500  0.27182800  0.07277300  1
  O  O21  1  0.27182800  0.07277300  0.93929500  1
