# generated using pymatgen
data_Sr(Mo3S4)2
_symmetry_space_group_name_H-M   'P 1'
_cell_length_a   6.57126500
_cell_length_b   6.64736190
_cell_length_c   6.70561295
_cell_angle_alpha   89.52631994
_cell_angle_beta   89.66943900
_cell_angle_gamma   88.37452185
_symmetry_Int_Tables_number   1
_chemical_formula_structural   Sr(Mo3S4)2
_chemical_formula_sum   'Sr1 Mo6 S8'
_cell_volume   292.77938368
_cell_formula_units_Z   1
loop_
 _symmetry_equiv_pos_site_id
 _symmetry_equiv_pos_as_xyz
  1  'x, y, z'
loop_
 _atom_site_type_symbol
 _atom_site_label
 _atom_site_symmetry_multiplicity
 _atom_site_fract_x
 _atom_site_fract_y
 _atom_site_fract_z
 _atom_site_occupancy
  Sr  Sr0  1  0.00000000  0.00000000  0.00000000  1
  Mo  Mo1  1  0.41922000  0.22870800  0.56173600  1
  Mo  Mo2  1  0.76422700  0.43932000  0.57913500  1
  Mo  Mo3  1  0.23577300  0.56068000  0.42086500  1
  Mo  Mo4  1  0.43585800  0.58314000  0.77159400  1
  Mo  Mo5  1  0.56414200  0.41686000  0.22840600  1
  Mo  Mo6  1  0.58078000  0.77129200  0.43826400  1
  S  S7  1  0.87214100  0.61596200  0.25957500  1
  S  S8  1  0.12785900  0.38403800  0.74042500  1
  S  S9  1  0.26023200  0.87546500  0.62015800  1
  S  S10  1  0.73976800  0.12453500  0.37984200  1
  S  S11  1  0.74672600  0.76020800  0.75357800  1
  S  S12  1  0.25327400  0.23979200  0.24642200  1
  S  S13  1  0.61754300  0.26469300  0.87243400  1
  S  S14  1  0.38245700  0.73530700  0.12756600  1
