# generated using pymatgen
data_Ge7H8N2O15
_symmetry_space_group_name_H-M   'P 1'
_cell_length_a   7.56625049
_cell_length_b   7.56625049
_cell_length_c   15.42241548
_cell_angle_alpha   77.96549662
_cell_angle_beta   77.96549662
_cell_angle_gamma   58.27604856
_symmetry_Int_Tables_number   1
_chemical_formula_structural   Ge7H8N2O15
_chemical_formula_sum   'Ge14 H16 N4 O30'
_cell_volume   729.28072332
_cell_formula_units_Z   2
loop_
 _symmetry_equiv_pos_site_id
 _symmetry_equiv_pos_as_xyz
  1  'x, y, z'
loop_
 _atom_site_type_symbol
 _atom_site_label
 _atom_site_symmetry_multiplicity
 _atom_site_fract_x
 _atom_site_fract_y
 _atom_site_fract_z
 _atom_site_occupancy
  Ge  Ge0  1  0.56206000  0.35009800  0.35285300  1
  Ge  Ge1  1  0.35009800  0.56206000  0.85285300  1
  Ge  Ge2  1  0.36573700  0.26626500  0.12406200  1
  Ge  Ge3  1  0.21676800  0.26545400  0.33661300  1
  Ge  Ge4  1  0.73454600  0.78323200  0.16338700  1
  Ge  Ge5  1  0.73373500  0.63426300  0.37593800  1
  Ge  Ge6  1  0.00000000  0.50000000  0.00000000  1
  Ge  Ge7  1  0.26626500  0.36573700  0.62406200  1
  Ge  Ge8  1  0.26545400  0.21676800  0.83661300  1
  Ge  Ge9  1  0.78323200  0.73454600  0.66338700  1
  Ge  Ge10  1  0.63426300  0.73373500  0.87593800  1
  Ge  Ge11  1  0.50000000  0.00000000  0.50000000  1
  Ge  Ge12  1  0.64990200  0.43794000  0.14714700  1
  Ge  Ge13  1  0.43794000  0.64990200  0.64714700  1
  H  H14  1  0.92938100  0.94693200  0.41106200  1
  H  H15  1  0.15180200  0.72408100  0.37509000  1
  H  H16  1  0.06015500  0.73833400  0.48293200  1
  H  H17  1  0.12436500  0.82167400  0.06929500  1
  H  H18  1  0.94693200  0.92938100  0.91106200  1
  H  H19  1  0.72408100  0.15180200  0.87509000  1
  H  H20  1  0.73833400  0.06015500  0.98293200  1
  H  H21  1  0.82167400  0.12436500  0.56929500  1
  H  H22  1  0.17832600  0.87563500  0.43070500  1
  H  H23  1  0.26166600  0.93984500  0.01706800  1
  H  H24  1  0.27591900  0.84819800  0.12491000  1
  H  H25  1  0.05306800  0.07061900  0.08893800  1
  H  H26  1  0.87563500  0.17832600  0.93070500  1
  H  H27  1  0.93984500  0.26166600  0.51706800  1
  H  H28  1  0.84819800  0.27591900  0.62491000  1
  H  H29  1  0.07061900  0.05306800  0.58893800  1
  N  N30  1  0.08019100  0.82381600  0.42380800  1
  N  N31  1  0.82381600  0.08019100  0.92380800  1
  N  N32  1  0.17618400  0.91980900  0.07619200  1
  N  N33  1  0.91980900  0.17618400  0.57619200  1
  O  O34  1  0.66000800  0.13008700  0.43127200  1
  O  O35  1  0.41785100  0.47223800  0.11752800  1
  O  O36  1  0.29729800  0.45119800  0.33261500  1
  O  O37  1  0.13008700  0.66000800  0.93127200  1
  O  O38  1  0.63207600  0.04747300  0.11433400  1
  O  O39  1  0.72635600  0.73757600  0.46837100  1
  O  O40  1  0.78500500  0.76707100  0.27325700  1
  O  O41  1  0.47223800  0.41785100  0.61752800  1
  O  O42  1  0.97225100  0.63127800  0.10026900  1
  O  O43  1  0.45119800  0.29729800  0.83261500  1
  O  O44  1  0.36872200  0.02774900  0.39973100  1
  O  O45  1  0.23292900  0.21499500  0.22674300  1
  O  O46  1  0.26242400  0.27364400  0.03162900  1
  O  O47  1  0.95252700  0.36792400  0.38566600  1
  O  O48  1  0.04747300  0.63207600  0.61433400  1
  O  O49  1  0.73757600  0.72635600  0.96837100  1
  O  O50  1  0.76707100  0.78500500  0.77325700  1
  O  O51  1  0.63127800  0.97225100  0.60026900  1
  O  O52  1  0.54880200  0.70270200  0.16738500  1
  O  O53  1  0.02774900  0.36872200  0.89973100  1
  O  O54  1  0.52776200  0.58214900  0.38247200  1
  O  O55  1  0.21499500  0.23292900  0.72674300  1
  O  O56  1  0.27364400  0.26242400  0.53162900  1
  O  O57  1  0.36792400  0.95252700  0.88566600  1
  O  O58  1  0.86991300  0.33999200  0.06872800  1
  O  O59  1  0.72377700  0.27622300  0.25000000  1
  O  O60  1  0.70270200  0.54880200  0.66738500  1
  O  O61  1  0.58214900  0.52776200  0.88247200  1
  O  O62  1  0.33999200  0.86991300  0.56872800  1
  O  O63  1  0.27622300  0.72377700  0.75000000  1
