# generated using pymatgen
data_Al2H16S3O20
_symmetry_space_group_name_H-M   'P 1'
_cell_length_a   22.16769900
_cell_length_b   7.40073700
_cell_length_c   9.66053081
_cell_angle_alpha   88.54639644
_cell_angle_beta   90.00000000
_cell_angle_gamma   90.00000000
_symmetry_Int_Tables_number   1
_chemical_formula_structural   Al2H16S3O20
_chemical_formula_sum   'Al8 H64 S12 O80'
_cell_volume   1584.37067673
_cell_formula_units_Z   4
loop_
 _symmetry_equiv_pos_site_id
 _symmetry_equiv_pos_as_xyz
  1  'x, y, z'
loop_
 _atom_site_type_symbol
 _atom_site_label
 _atom_site_symmetry_multiplicity
 _atom_site_fract_x
 _atom_site_fract_y
 _atom_site_fract_z
 _atom_site_occupancy
  Al  Al0  1  0.85150400  0.80591500  0.95170500  1
  Al  Al1  1  0.64849600  0.80591500  0.45170500  1
  Al  Al2  1  0.39665400  0.77497700  0.99781300  1
  Al  Al3  1  0.10334600  0.77497700  0.49781300  1
  Al  Al4  1  0.89665400  0.22502300  0.50218700  1
  Al  Al5  1  0.60334600  0.22502300  0.00218700  1
  Al  Al6  1  0.35150400  0.19408500  0.54829500  1
  Al  Al7  1  0.14849600  0.19408500  0.04829500  1
  H  H8  1  0.26136400  0.98470800  0.60793800  1
  H  H9  1  0.04415600  0.00181900  0.64607000  1
  H  H10  1  0.23863600  0.98470800  0.10793800  1
  H  H11  1  0.45584400  0.00181900  0.14607000  1
  H  H12  1  0.42128700  0.91051300  0.54033900  1
  H  H13  1  0.13970700  0.87831700  0.95169000  1
  H  H14  1  0.07871300  0.91051300  0.04033900  1
  H  H15  1  0.36029300  0.87831700  0.45169000  1
  H  H16  1  0.73831200  0.85034700  0.99688300  1
  H  H17  1  0.76168800  0.85034700  0.49688300  1
  H  H18  1  0.99725200  0.84401200  0.59950700  1
  H  H19  1  0.50274800  0.84401200  0.09950700  1
  H  H20  1  0.61417000  0.77116400  0.69950900  1
  H  H21  1  0.96653200  0.73725400  0.99041600  1
  H  H22  1  0.88583000  0.77116400  0.19950900  1
  H  H23  1  0.53346800  0.73725400  0.49041600  1
  H  H24  1  0.30655800  0.72108100  0.83018200  1
  H  H25  1  0.19344200  0.72108100  0.33018200  1
  H  H26  1  0.67553300  0.64937700  0.69521400  1
  H  H27  1  0.82446700  0.64937700  0.19521400  1
  H  H28  1  0.94484900  0.62339300  0.85847400  1
  H  H29  1  0.55515100  0.62339300  0.35847400  1
  H  H30  1  0.77758400  0.55563600  0.86168200  1
  H  H31  1  0.32528800  0.52783300  0.90743600  1
  H  H32  1  0.72241600  0.55563600  0.36168200  1
  H  H33  1  0.17471200  0.52783300  0.40743600  1
  H  H34  1  0.93047500  0.56076900  0.51793700  1
  H  H35  1  0.04382600  0.52402700  0.62564500  1
  H  H36  1  0.56952500  0.56076900  0.01793700  1
  H  H37  1  0.45617400  0.52402700  0.12564500  1
  H  H38  1  0.82039200  0.47213500  0.98135400  1
  H  H39  1  0.32039200  0.52786500  0.51864600  1
  H  H40  1  0.67960800  0.47213500  0.48135400  1
  H  H41  1  0.17960800  0.52786500  0.01864600  1
  H  H42  1  0.54382600  0.47597300  0.87435500  1
  H  H43  1  0.43047500  0.43923100  0.98206300  1
  H  H44  1  0.95617400  0.47597300  0.37435500  1
  H  H45  1  0.06952500  0.43923100  0.48206300  1
  H  H46  1  0.82528800  0.47216700  0.59256400  1
  H  H47  1  0.27758400  0.44436400  0.63831800  1
  H  H48  1  0.67471200  0.47216700  0.09256400  1
  H  H49  1  0.22241600  0.44436400  0.13831800  1
  H  H50  1  0.44484900  0.37660700  0.64152600  1
  H  H51  1  0.05515100  0.37660700  0.14152600  1
  H  H52  1  0.17553300  0.35062300  0.80478600  1
  H  H53  1  0.32446700  0.35062300  0.30478600  1
  H  H54  1  0.80655800  0.27891900  0.66981800  1
  H  H55  1  0.69344200  0.27891900  0.16981800  1
  H  H56  1  0.46653200  0.26274600  0.50958400  1
  H  H57  1  0.11417000  0.22883600  0.80049100  1
  H  H58  1  0.03346800  0.26274600  0.00958400  1
  H  H59  1  0.38583000  0.22883600  0.30049100  1
  H  H60  1  0.49725200  0.15598800  0.90049300  1
  H  H61  1  0.00274800  0.15598800  0.40049300  1
  H  H62  1  0.23831200  0.14965300  0.50311700  1
  H  H63  1  0.26168800  0.14965300  0.00311700  1
  H  H64  1  0.63970700  0.12168300  0.54831000  1
  H  H65  1  0.92128700  0.08948700  0.95966100  1
  H  H66  1  0.86029300  0.12168300  0.04831000  1
  H  H67  1  0.57871300  0.08948700  0.45966100  1
  H  H68  1  0.54415600  0.99818100  0.85393000  1
  H  H69  1  0.76136400  0.01529200  0.89206200  1
  H  H70  1  0.95584400  0.99818100  0.35393000  1
  H  H71  1  0.73863600  0.01529200  0.39206200  1
  S  S72  1  0.86429800  0.83177100  0.61981900  1
  S  S73  1  0.63570200  0.83177100  0.11981900  1
  S  S74  1  0.48948400  0.73123200  0.73784100  1
  S  S75  1  0.01051600  0.73123200  0.23784100  1
  S  S76  1  0.19776400  0.69300400  0.75195000  1
  S  S77  1  0.30223600  0.69300400  0.25195000  1
  S  S78  1  0.69776400  0.30699600  0.74805000  1
  S  S79  1  0.80223600  0.30699600  0.24805000  1
  S  S80  1  0.98948400  0.26876800  0.76215900  1
  S  S81  1  0.51051600  0.26876800  0.26215900  1
  S  S82  1  0.36429800  0.16822900  0.88018100  1
  S  S83  1  0.13570200  0.16822900  0.38018100  1
  O  O84  1  0.35923300  0.99972200  0.96782000  1
  O  O85  1  0.14076700  0.99972200  0.46782000  1
  O  O86  1  0.11372400  0.97322400  0.99394600  1
  O  O87  1  0.38627600  0.97322400  0.49394600  1
  O  O88  1  0.77377300  0.91639100  0.95828000  1
  O  O89  1  0.72622700  0.91639100  0.45828000  1
  O  O90  1  0.85317200  0.88454000  0.76497800  1
  O  O91  1  0.04009000  0.88180200  0.59927800  1
  O  O92  1  0.64682800  0.88454000  0.26497800  1
  O  O93  1  0.45991000  0.88180200  0.09927800  1
  O  O94  1  0.44004600  0.80666800  0.82460700  1
  O  O95  1  0.25226200  0.80611500  0.72504100  1
  O  O96  1  0.54837600  0.80471600  0.78682000  1
  O  O97  1  0.05995400  0.80666800  0.32460700  1
  O  O98  1  0.24773800  0.80611500  0.22504100  1
  O  O99  1  0.47853400  0.79255100  0.59194500  1
  O  O100  1  0.95162400  0.80471600  0.28682000  1
  O  O101  1  0.02146600  0.79255100  0.09194500  1
  O  O102  1  0.14645500  0.76416400  0.66811000  1
  O  O103  1  0.92490500  0.74915800  0.60715800  1
  O  O104  1  0.35354500  0.76416400  0.16811000  1
  O  O105  1  0.65133400  0.74638800  0.64474300  1
  O  O106  1  0.57509500  0.74915800  0.10715800  1
  O  O107  1  0.84866600  0.74638800  0.14474300  1
  O  O108  1  0.93054500  0.70169700  0.93333700  1
  O  O109  1  0.17932000  0.69974400  0.90015900  1
  O  O110  1  0.81681300  0.70745000  0.57251700  1
  O  O111  1  0.56945500  0.70169700  0.43333700  1
  O  O112  1  0.32068000  0.69974400  0.40015900  1
  O  O113  1  0.68318700  0.70745000  0.07251700  1
  O  O114  1  0.33402800  0.65937100  0.89943800  1
  O  O115  1  0.16597200  0.65937100  0.39943800  1
  O  O116  1  0.81670800  0.57430400  0.91166000  1
  O  O117  1  0.68329200  0.57430400  0.41166000  1
  O  O118  1  0.06760200  0.54970300  0.53940700  1
  O  O119  1  0.49143900  0.53105200  0.74825800  1
  O  O120  1  0.43239800  0.54970300  0.03940700  1
  O  O121  1  0.00856100  0.53105200  0.24825800  1
  O  O122  1  0.21183000  0.50162300  0.71750000  1
  O  O123  1  0.71183000  0.49837700  0.78250000  1
  O  O124  1  0.28817000  0.50162300  0.21750000  1
  O  O125  1  0.78817000  0.49837700  0.28250000  1
  O  O126  1  0.99143900  0.46894800  0.75174200  1
  O  O127  1  0.56760200  0.45029700  0.96059300  1
  O  O128  1  0.50856100  0.46894800  0.25174200  1
  O  O129  1  0.93239800  0.45029700  0.46059300  1
  O  O130  1  0.31670800  0.42569600  0.58834000  1
  O  O131  1  0.18329200  0.42569600  0.08834000  1
  O  O132  1  0.83402800  0.34062900  0.60056200  1
  O  O133  1  0.66597200  0.34062900  0.10056200  1
  O  O134  1  0.31681300  0.29255000  0.92748300  1
  O  O135  1  0.67932000  0.30025600  0.59984100  1
  O  O136  1  0.43054500  0.29830300  0.56666300  1
  O  O137  1  0.18318700  0.29255000  0.42748300  1
  O  O138  1  0.82068000  0.30025600  0.09984100  1
  O  O139  1  0.06945500  0.29830300  0.06666300  1
  O  O140  1  0.15133400  0.25361200  0.85525700  1
  O  O141  1  0.42490500  0.25084200  0.89284200  1
  O  O142  1  0.34866600  0.25361200  0.35525700  1
  O  O143  1  0.64645500  0.23583600  0.83189000  1
  O  O144  1  0.07509500  0.25084200  0.39284200  1
  O  O145  1  0.85354500  0.23583600  0.33189000  1
  O  O146  1  0.97853400  0.20744900  0.90805500  1
  O  O147  1  0.04837600  0.19528400  0.71318000  1
  O  O148  1  0.52146600  0.20744900  0.40805500  1
  O  O149  1  0.75226100  0.19388500  0.77495900  1
  O  O150  1  0.94004600  0.19333200  0.67539300  1
  O  O151  1  0.45162400  0.19528400  0.21318000  1
  O  O152  1  0.74773800  0.19388500  0.27495900  1
  O  O153  1  0.55995400  0.19333200  0.17539300  1
  O  O154  1  0.54009000  0.11819800  0.90072200  1
  O  O155  1  0.35317200  0.11546000  0.73502200  1
  O  O156  1  0.95991000  0.11819800  0.40072200  1
  O  O157  1  0.14682800  0.11546000  0.23502200  1
  O  O158  1  0.27377300  0.08360900  0.54172000  1
  O  O159  1  0.22622700  0.08360900  0.04172000  1
  O  O160  1  0.61372400  0.02677600  0.50605400  1
  O  O161  1  0.88627600  0.02677600  0.00605400  1
  O  O162  1  0.85923300  0.00027800  0.53218000  1
  O  O163  1  0.64076700  0.00027800  0.03218000  1
