# generated using pymatgen
data_PuCo2
_symmetry_space_group_name_H-M   'P 1'
_cell_length_a   5.00886442
_cell_length_b   5.00886442
_cell_length_c   5.00886442
_cell_angle_alpha   60.00000000
_cell_angle_beta   60.00000000
_cell_angle_gamma   60.00000000
_symmetry_Int_Tables_number   1
_chemical_formula_structural   PuCo2
_chemical_formula_sum   'Pu2 Co4'
_cell_volume   88.85928864
_cell_formula_units_Z   2
loop_
 _symmetry_equiv_pos_site_id
 _symmetry_equiv_pos_as_xyz
  1  'x, y, z'
loop_
 _atom_site_type_symbol
 _atom_site_label
 _atom_site_symmetry_multiplicity
 _atom_site_fract_x
 _atom_site_fract_y
 _atom_site_fract_z
 _atom_site_occupancy
  Pu  Pu0  1  0.50000000  0.50000000  0.50000000  1
  Pu  Pu1  1  0.75000000  0.75000000  0.75000000  1
  Co  Co2  1  0.12500000  0.12500000  0.12500000  1
  Co  Co3  1  0.62500000  0.12500000  0.12500000  1
  Co  Co4  1  0.12500000  0.62500000  0.12500000  1
  Co  Co5  1  0.12500000  0.12500000  0.62500000  1
