# generated using pymatgen
data_Tc3Os
_symmetry_space_group_name_H-M   'P 1'
_cell_length_a   5.53110077
_cell_length_b   5.53110077
_cell_length_c   4.38103000
_cell_angle_alpha   90.00000000
_cell_angle_beta   90.00000000
_cell_angle_gamma   120.00000921
_symmetry_Int_Tables_number   1
_chemical_formula_structural   Tc3Os
_chemical_formula_sum   'Tc6 Os2'
_cell_volume   116.07266617
_cell_formula_units_Z   2
loop_
 _symmetry_equiv_pos_site_id
 _symmetry_equiv_pos_as_xyz
  1  'x, y, z'
loop_
 _atom_site_type_symbol
 _atom_site_label
 _atom_site_symmetry_multiplicity
 _atom_site_fract_x
 _atom_site_fract_y
 _atom_site_fract_z
 _atom_site_occupancy
  Tc  Tc0  1  0.83363300  0.16636700  0.75000000  1
  Tc  Tc1  1  0.33273400  0.16636700  0.75000000  1
  Tc  Tc2  1  0.83363300  0.66726600  0.75000000  1
  Tc  Tc3  1  0.16636700  0.83363300  0.25000000  1
  Tc  Tc4  1  0.66726600  0.83363300  0.25000000  1
  Tc  Tc5  1  0.16636700  0.33273400  0.25000000  1
  Os  Os6  1  0.66666700  0.33333300  0.25000000  1
  Os  Os7  1  0.33333300  0.66666700  0.75000000  1
