# generated using pymatgen
data_Ca(BO2)2
_symmetry_space_group_name_H-M   'P 1'
_cell_length_a   5.05546800
_cell_length_b   8.43414700
_cell_length_c   14.00141600
_cell_angle_alpha   90.00000000
_cell_angle_beta   90.00000000
_cell_angle_gamma   90.00000000
_symmetry_Int_Tables_number   1
_chemical_formula_structural   Ca(BO2)2
_chemical_formula_sum   'Ca8 B16 O32'
_cell_volume   597.00021992
_cell_formula_units_Z   8
loop_
 _symmetry_equiv_pos_site_id
 _symmetry_equiv_pos_as_xyz
  1  'x, y, z'
loop_
 _atom_site_type_symbol
 _atom_site_label
 _atom_site_symmetry_multiplicity
 _atom_site_fract_x
 _atom_site_fract_y
 _atom_site_fract_z
 _atom_site_occupancy
  Ca  Ca0  1  0.61910700  0.38474600  0.35646100  1
  Ca  Ca1  1  0.61910700  0.11525400  0.14353900  1
  Ca  Ca2  1  0.88089300  0.88474600  0.64353900  1
  Ca  Ca3  1  0.88089300  0.61525400  0.85646100  1
  Ca  Ca4  1  0.38089300  0.61525400  0.64353900  1
  Ca  Ca5  1  0.38089300  0.88474600  0.85646100  1
  Ca  Ca6  1  0.11910700  0.11525400  0.35646100  1
  Ca  Ca7  1  0.11910700  0.38474600  0.14353900  1
  B  B8  1  0.86947400  0.74549200  0.44891500  1
  B  B9  1  0.86947400  0.75450800  0.05108500  1
  B  B10  1  0.63052600  0.24549200  0.55108500  1
  B  B11  1  0.63052600  0.25450800  0.94891500  1
  B  B12  1  0.13052600  0.25450800  0.55108500  1
  B  B13  1  0.13052600  0.24549200  0.94891500  1
  B  B14  1  0.36947400  0.75450800  0.44891500  1
  B  B15  1  0.36947400  0.74549200  0.05108500  1
  B  B16  1  0.62399500  0.53668500  0.13791500  1
  B  B17  1  0.62399500  0.96331500  0.36208500  1
  B  B18  1  0.87600500  0.03668500  0.86208500  1
  B  B19  1  0.87600500  0.46331500  0.63791500  1
  B  B20  1  0.37600500  0.46331500  0.86208500  1
  B  B21  1  0.37600500  0.03668500  0.63791500  1
  B  B22  1  0.12399500  0.96331500  0.13791500  1
  B  B23  1  0.12399500  0.53668500  0.36208500  1
  O  O24  1  0.35687400  0.88863900  0.11418400  1
  O  O25  1  0.35687400  0.61136100  0.38581600  1
  O  O26  1  0.14312600  0.38863900  0.88581600  1
  O  O27  1  0.14312600  0.11136100  0.61418400  1
  O  O28  1  0.64312600  0.11136100  0.88581600  1
  O  O29  1  0.64312600  0.38863900  0.61418400  1
  O  O30  1  0.85687400  0.61136100  0.11418400  1
  O  O31  1  0.85687400  0.88863900  0.38581600  1
  O  O32  1  0.62830400  0.39478100  0.18611900  1
  O  O33  1  0.62830400  0.10521900  0.31388100  1
  O  O34  1  0.87169600  0.89478100  0.81388100  1
  O  O35  1  0.87169600  0.60521900  0.68611900  1
  O  O36  1  0.37169600  0.60521900  0.81388100  1
  O  O37  1  0.37169600  0.89478100  0.68611900  1
  O  O38  1  0.12830400  0.10521900  0.18611900  1
  O  O39  1  0.12830400  0.39478100  0.31388100  1
  O  O40  1  0.11971300  0.74110100  0.99222700  1
  O  O41  1  0.11971300  0.75889900  0.50777300  1
  O  O42  1  0.38028700  0.24110100  0.00777300  1
  O  O43  1  0.38028700  0.25889900  0.49222700  1
  O  O44  1  0.88028700  0.25889900  0.00777300  1
  O  O45  1  0.88028700  0.24110100  0.49222700  1
  O  O46  1  0.61971300  0.75889900  0.99222700  1
  O  O47  1  0.61971300  0.74110100  0.50777300  1
  O  O48  1  0.38562900  0.60058600  0.11006300  1
  O  O49  1  0.38562900  0.89941400  0.38993700  1
  O  O50  1  0.11437100  0.10058600  0.88993700  1
  O  O51  1  0.11437100  0.39941400  0.61006300  1
  O  O52  1  0.61437100  0.39941400  0.88993700  1
  O  O53  1  0.61437100  0.10058600  0.61006300  1
  O  O54  1  0.88562900  0.89941400  0.11006300  1
  O  O55  1  0.88562900  0.60058600  0.38993700  1
