# generated using pymatgen
data_LiMg149
_symmetry_space_group_name_H-M   'P 1'
_cell_length_a   15.95651625
_cell_length_b   15.95800284
_cell_length_c   15.65774900
_cell_angle_alpha   90.00000000
_cell_angle_beta   89.99999324
_cell_angle_gamma   119.94807806
_symmetry_Int_Tables_number   1
_chemical_formula_structural   LiMg149
_chemical_formula_sum   'Li1 Mg149'
_cell_volume   3454.64607219
_cell_formula_units_Z   1
loop_
 _symmetry_equiv_pos_site_id
 _symmetry_equiv_pos_as_xyz
  1  'x, y, z'
loop_
 _atom_site_type_symbol
 _atom_site_label
 _atom_site_symmetry_multiplicity
 _atom_site_fract_x
 _atom_site_fract_y
 _atom_site_fract_z
 _atom_site_occupancy
  Li  Li0  1  0.99999600  0.00000500  0.99999700  1
  Mg  Mg1  1  0.19831000  0.19831700  0.99999900  1
  Mg  Mg2  1  0.99998800  0.19830300  0.00000000  1
  Mg  Mg3  1  0.80018100  0.19982100  0.99999800  1
  Mg  Mg4  1  0.39962900  0.19981800  0.99999900  1
  Mg  Mg5  1  0.59997200  0.19995300  0.99999900  1
  Mg  Mg6  1  0.39959000  0.39967700  0.99999800  1
  Mg  Mg7  1  0.00007100  0.39967600  0.99999800  1
  Mg  Mg8  1  0.19984900  0.39971000  0.99999800  1
  Mg  Mg9  1  0.80004900  0.40003000  0.99999900  1
  Mg  Mg10  1  0.59997000  0.40003100  0.99999800  1
  Mg  Mg11  1  0.20004600  0.60002900  0.99999800  1
  Mg  Mg12  1  0.39997000  0.60003200  0.99999700  1
  Mg  Mg13  1  0.80018300  0.60037300  0.99999800  1
  Mg  Mg14  1  0.60032600  0.60041300  0.99999800  1
  Mg  Mg15  1  0.00007400  0.60041100  0.99999900  1
  Mg  Mg16  1  0.39997100  0.79995600  0.99999800  1
  Mg  Mg17  1  0.60029300  0.80015300  0.99999900  1
  Mg  Mg18  1  0.19984900  0.80015200  0.99999900  1
  Mg  Mg19  1  0.80168700  0.80169300  0.99999900  1
  Mg  Mg20  1  0.99999600  0.80170400  0.00000000  1
  Mg  Mg21  1  0.60032500  0.99993000  0.99999800  1
  Mg  Mg22  1  0.39959300  0.99992900  0.99999900  1
  Mg  Mg23  1  0.80169900  0.00001200  0.99999900  1
  Mg  Mg24  1  0.19829700  0.00000500  0.99999800  1
  Mg  Mg25  1  0.06619900  0.13237800  0.16513400  1
  Mg  Mg26  1  0.86762100  0.93379900  0.16513300  1
  Mg  Mg27  1  0.06619500  0.93380300  0.16513000  1
  Mg  Mg28  1  0.66667000  0.33332600  0.16650300  1
  Mg  Mg29  1  0.46660500  0.13336400  0.16662600  1
  Mg  Mg30  1  0.66677500  0.13336500  0.16662400  1
  Mg  Mg31  1  0.46660200  0.33322600  0.16662800  1
  Mg  Mg32  1  0.86663400  0.33322400  0.16662300  1
  Mg  Mg33  1  0.66677300  0.53339500  0.16662800  1
  Mg  Mg34  1  0.86663400  0.53339500  0.16662600  1
  Mg  Mg35  1  0.86672700  0.13326900  0.16659000  1
  Mg  Mg36  1  0.26655000  0.13327300  0.16659600  1
  Mg  Mg37  1  0.86672400  0.73344800  0.16659700  1
  Mg  Mg38  1  0.26634200  0.33303400  0.16662900  1
  Mg  Mg39  1  0.06670600  0.33303700  0.16662700  1
  Mg  Mg40  1  0.06670900  0.73365400  0.16662600  1
  Mg  Mg41  1  0.66696400  0.73365600  0.16662900  1
  Mg  Mg42  1  0.66696200  0.93329300  0.16662700  1
  Mg  Mg43  1  0.26634500  0.93329100  0.16662600  1
  Mg  Mg44  1  0.06669400  0.53334300  0.16668200  1
  Mg  Mg45  1  0.46665900  0.53334100  0.16668500  1
  Mg  Mg46  1  0.46665700  0.93330500  0.16668100  1
  Mg  Mg47  1  0.26660600  0.53319700  0.16671800  1
  Mg  Mg48  1  0.26660700  0.73339200  0.16671600  1
  Mg  Mg49  1  0.46680100  0.73339200  0.16671800  1
  Mg  Mg50  1  0.99999600  0.00000600  0.33263000  1
  Mg  Mg51  1  0.80005300  0.99990200  0.33289300  1
  Mg  Mg52  1  0.19983800  0.99990400  0.33289400  1
  Mg  Mg53  1  0.19983800  0.19994800  0.33288900  1
  Mg  Mg54  1  0.00009800  0.19994800  0.33289200  1
  Mg  Mg55  1  0.80005400  0.80016400  0.33288800  1
  Mg  Mg56  1  0.00009600  0.80016500  0.33289200  1
  Mg  Mg57  1  0.40000500  0.00005200  0.33330800  1
  Mg  Mg58  1  0.60003400  0.00004900  0.33330800  1
  Mg  Mg59  1  0.40000100  0.39996700  0.33330200  1
  Mg  Mg60  1  0.99995300  0.39996700  0.33330700  1
  Mg  Mg61  1  0.99994900  0.59999700  0.33330700  1
  Mg  Mg62  1  0.60003500  0.60000200  0.33330100  1
  Mg  Mg63  1  0.59997000  0.19995800  0.33337100  1
  Mg  Mg64  1  0.59997400  0.40002800  0.33336700  1
  Mg  Mg65  1  0.80004300  0.40003100  0.33337000  1
  Mg  Mg66  1  0.39995200  0.19998100  0.33334700  1
  Mg  Mg67  1  0.80001800  0.19998400  0.33334700  1
  Mg  Mg68  1  0.80002100  0.60004900  0.33334700  1
  Mg  Mg69  1  0.20005200  0.40012000  0.33344800  1
  Mg  Mg70  1  0.20005200  0.79994900  0.33345000  1
  Mg  Mg71  1  0.59988200  0.79995000  0.33344700  1
  Mg  Mg72  1  0.19994200  0.59997500  0.33356800  1
  Mg  Mg73  1  0.40002200  0.59997900  0.33356800  1
  Mg  Mg74  1  0.40002400  0.80005900  0.33356900  1
  Mg  Mg75  1  0.06667900  0.13333900  0.50000200  1
  Mg  Mg76  1  0.26669900  0.13334300  0.50000100  1
  Mg  Mg77  1  0.86665200  0.13334500  0.50000200  1
  Mg  Mg78  1  0.66678000  0.13356000  0.50000100  1
  Mg  Mg79  1  0.46679600  0.13355900  0.50000200  1
  Mg  Mg80  1  0.06663400  0.33321300  0.50000200  1
  Mg  Mg81  1  0.26659000  0.33321000  0.50000100  1
  Mg  Mg82  1  0.86643800  0.33321700  0.50000300  1
  Mg  Mg83  1  0.46679500  0.33322100  0.50000100  1
  Mg  Mg84  1  0.66667100  0.33332700  0.50000200  1
  Mg  Mg85  1  0.86643900  0.53320200  0.50000200  1
  Mg  Mg86  1  0.66677700  0.53320200  0.50000100  1
  Mg  Mg87  1  0.06660800  0.53329800  0.50000100  1
  Mg  Mg88  1  0.46670200  0.53329800  0.50000100  1
  Mg  Mg89  1  0.26667600  0.53333600  0.50000200  1
  Mg  Mg90  1  0.26667500  0.73332400  0.50000100  1
  Mg  Mg91  1  0.46666200  0.73332300  0.50000100  1
  Mg  Mg92  1  0.86665500  0.73330000  0.50000100  1
  Mg  Mg93  1  0.66678700  0.73340800  0.50000100  1
  Mg  Mg94  1  0.06663600  0.73340700  0.50000100  1
  Mg  Mg95  1  0.86666000  0.93332100  0.50000100  1
  Mg  Mg96  1  0.06667700  0.93332100  0.50000300  1
  Mg  Mg97  1  0.66678600  0.93336600  0.50000200  1
  Mg  Mg98  1  0.26659200  0.93336400  0.50000100  1
  Mg  Mg99  1  0.46670100  0.93339000  0.50000100  1
  Mg  Mg100  1  0.19994200  0.59997600  0.66643200  1
  Mg  Mg101  1  0.40002300  0.59997800  0.66643500  1
  Mg  Mg102  1  0.40002400  0.80005900  0.66643300  1
  Mg  Mg103  1  0.20005300  0.40012100  0.66655400  1
  Mg  Mg104  1  0.20005200  0.79994700  0.66655200  1
  Mg  Mg105  1  0.59988200  0.79995000  0.66655400  1
  Mg  Mg106  1  0.39995300  0.19998100  0.66665600  1
  Mg  Mg107  1  0.80001900  0.19998500  0.66665300  1
  Mg  Mg108  1  0.80002100  0.60005000  0.66665500  1
  Mg  Mg109  1  0.59997100  0.19995900  0.66663200  1
  Mg  Mg110  1  0.59997400  0.40002900  0.66663600  1
  Mg  Mg111  1  0.80004300  0.40003100  0.66663400  1
  Mg  Mg112  1  0.40000400  0.00005200  0.66669500  1
  Mg  Mg113  1  0.60003500  0.00004800  0.66669400  1
  Mg  Mg114  1  0.40000100  0.39996600  0.66670100  1
  Mg  Mg115  1  0.99995300  0.39996700  0.66669500  1
  Mg  Mg116  1  0.99995100  0.59999700  0.66669500  1
  Mg  Mg117  1  0.60003400  0.60000100  0.66670000  1
  Mg  Mg118  1  0.80005200  0.99990200  0.66710700  1
  Mg  Mg119  1  0.19983800  0.99990400  0.66710800  1
  Mg  Mg120  1  0.19983700  0.19994800  0.66711300  1
  Mg  Mg121  1  0.00009800  0.19994700  0.66710800  1
  Mg  Mg122  1  0.80005400  0.80016400  0.66711300  1
  Mg  Mg123  1  0.00009600  0.80016500  0.66711000  1
  Mg  Mg124  1  0.99999500  0.00000500  0.66737200  1
  Mg  Mg125  1  0.26660700  0.53319800  0.83328000  1
  Mg  Mg126  1  0.26660600  0.73339100  0.83328300  1
  Mg  Mg127  1  0.46680000  0.73339100  0.83328100  1
  Mg  Mg128  1  0.06669400  0.53334300  0.83331700  1
  Mg  Mg129  1  0.46665900  0.53334000  0.83331400  1
  Mg  Mg130  1  0.46665700  0.93330400  0.83331700  1
  Mg  Mg131  1  0.26634200  0.33303400  0.83337000  1
  Mg  Mg132  1  0.06670600  0.33303800  0.83337100  1
  Mg  Mg133  1  0.06670700  0.73365300  0.83337200  1
  Mg  Mg134  1  0.66696300  0.73365400  0.83337000  1
  Mg  Mg135  1  0.66696200  0.93329400  0.83337100  1
  Mg  Mg136  1  0.26634500  0.93329200  0.83337300  1
  Mg  Mg137  1  0.86672700  0.13326900  0.83340700  1
  Mg  Mg138  1  0.26655000  0.13327400  0.83340300  1
  Mg  Mg139  1  0.86672400  0.73344900  0.83340200  1
  Mg  Mg140  1  0.46660500  0.13336400  0.83337200  1
  Mg  Mg141  1  0.66677500  0.13336600  0.83337500  1
  Mg  Mg142  1  0.46660300  0.33322600  0.83337100  1
  Mg  Mg143  1  0.86663400  0.33322300  0.83337400  1
  Mg  Mg144  1  0.66677300  0.53339500  0.83337100  1
  Mg  Mg145  1  0.86663300  0.53339400  0.83337200  1
  Mg  Mg146  1  0.66667000  0.33332700  0.83349600  1
  Mg  Mg147  1  0.06620000  0.13237800  0.83486500  1
  Mg  Mg148  1  0.86762100  0.93380000  0.83486500  1
  Mg  Mg149  1  0.06619500  0.93380400  0.83486800  1
