# generated using pymatgen
data_AsF5
_symmetry_space_group_name_H-M   'P 1'
_cell_length_a   5.94581762
_cell_length_b   5.94581762
_cell_length_c   6.61295800
_cell_angle_alpha   90.00000000
_cell_angle_beta   90.00000000
_cell_angle_gamma   119.99999582
_symmetry_Int_Tables_number   1
_chemical_formula_structural   AsF5
_chemical_formula_sum   'As2 F10'
_cell_volume   202.46482496
_cell_formula_units_Z   2
loop_
 _symmetry_equiv_pos_site_id
 _symmetry_equiv_pos_as_xyz
  1  'x, y, z'
loop_
 _atom_site_type_symbol
 _atom_site_label
 _atom_site_symmetry_multiplicity
 _atom_site_fract_x
 _atom_site_fract_y
 _atom_site_fract_z
 _atom_site_occupancy
  As  As0  1  0.66666700  0.33333300  0.75000000  1
  As  As1  1  0.33333300  0.66666700  0.25000000  1
  F  F2  1  0.33333300  0.66666700  0.51461200  1
  F  F3  1  0.66666700  0.33333300  0.01461200  1
  F  F4  1  0.16671800  0.33343700  0.25000000  1
  F  F5  1  0.83328200  0.16671800  0.75000000  1
  F  F6  1  0.33343700  0.16671800  0.75000000  1
  F  F7  1  0.66656300  0.83328200  0.25000000  1
  F  F8  1  0.16671800  0.83328200  0.25000000  1
  F  F9  1  0.83328200  0.66656300  0.75000000  1
  F  F10  1  0.33333300  0.66666700  0.98538800  1
  F  F11  1  0.66666700  0.33333300  0.48538800  1
