# generated using pymatgen
data_Lu2Ge2O7
_symmetry_space_group_name_H-M   'P 1'
_cell_length_a   6.76063900
_cell_length_b   6.76063900
_cell_length_c   12.29553200
_cell_angle_alpha   90.00000000
_cell_angle_beta   90.00000000
_cell_angle_gamma   90.00000000
_symmetry_Int_Tables_number   1
_chemical_formula_structural   Lu2Ge2O7
_chemical_formula_sum   'Lu8 Ge8 O28'
_cell_volume   561.98253269
_cell_formula_units_Z   4
loop_
 _symmetry_equiv_pos_site_id
 _symmetry_equiv_pos_as_xyz
  1  'x, y, z'
loop_
 _atom_site_type_symbol
 _atom_site_label
 _atom_site_symmetry_multiplicity
 _atom_site_fract_x
 _atom_site_fract_y
 _atom_site_fract_z
 _atom_site_occupancy
  Lu  Lu0  1  0.64338400  0.87281200  0.38535900  1
  Lu  Lu1  1  0.35661600  0.12718800  0.88535900  1
  Lu  Lu2  1  0.87281200  0.64338400  0.61464100  1
  Lu  Lu3  1  0.37281200  0.85661600  0.13535900  1
  Lu  Lu4  1  0.62718800  0.14338400  0.63535900  1
  Lu  Lu5  1  0.85661600  0.37281200  0.86464100  1
  Lu  Lu6  1  0.14338400  0.62718800  0.36464100  1
  Lu  Lu7  1  0.12718800  0.35661600  0.11464100  1
  Ge  Ge8  1  0.64856800  0.39935100  0.38281800  1
  Ge  Ge9  1  0.35143200  0.60064900  0.88281800  1
  Ge  Ge10  1  0.39935100  0.64856800  0.61718200  1
  Ge  Ge11  1  0.89935100  0.85143200  0.13281800  1
  Ge  Ge12  1  0.10064900  0.14856800  0.63281800  1
  Ge  Ge13  1  0.85143200  0.89935100  0.86718200  1
  Ge  Ge14  1  0.14856800  0.10064900  0.36718200  1
  Ge  Ge15  1  0.60064900  0.35143200  0.11718200  1
  O  O16  1  0.30393500  0.69606500  0.75000000  1
  O  O17  1  0.80393500  0.80393500  0.00000000  1
  O  O18  1  0.19606500  0.19606500  0.50000000  1
  O  O19  1  0.69606500  0.30393500  0.25000000  1
  O  O20  1  0.46263300  0.58061000  0.37933300  1
  O  O21  1  0.53736700  0.41939000  0.87933300  1
  O  O22  1  0.58061000  0.46263300  0.62066700  1
  O  O23  1  0.08061000  0.03736700  0.12933300  1
  O  O24  1  0.91939000  0.96263300  0.62933300  1
  O  O25  1  0.03736700  0.08061000  0.87066700  1
  O  O26  1  0.96263300  0.91939000  0.37066700  1
  O  O27  1  0.41939000  0.53736700  0.12066700  1
  O  O28  1  0.33787600  0.93328800  0.32015600  1
  O  O29  1  0.66212400  0.06671200  0.82015600  1
  O  O30  1  0.93328800  0.33787600  0.67984400  1
  O  O31  1  0.43328800  0.16212400  0.07015600  1
  O  O32  1  0.82352700  0.35755600  0.04353800  1
  O  O33  1  0.14244400  0.32352700  0.29353800  1
  O  O34  1  0.85755600  0.67647300  0.79353800  1
  O  O35  1  0.32352700  0.14244400  0.70646200  1
  O  O36  1  0.67647300  0.85755600  0.20646200  1
  O  O37  1  0.17647300  0.64244400  0.54353800  1
  O  O38  1  0.35755600  0.82352700  0.95646200  1
  O  O39  1  0.64244400  0.17647300  0.45646200  1
  O  O40  1  0.06671200  0.66212400  0.17984400  1
  O  O41  1  0.83787600  0.56671200  0.42984400  1
  O  O42  1  0.16212400  0.43328800  0.92984400  1
  O  O43  1  0.56671200  0.83787600  0.57015600  1
