# generated using pymatgen
data_Na3SbO3
_symmetry_space_group_name_H-M   'P 1'
_cell_length_a   8.33823635
_cell_length_b   8.33823635
_cell_length_c   8.33823635
_cell_angle_alpha   109.47122063
_cell_angle_beta   109.47122063
_cell_angle_gamma   109.47122063
_symmetry_Int_Tables_number   1
_chemical_formula_structural   Na3SbO3
_chemical_formula_sum   'Na12 Sb4 O12'
_cell_volume   446.27310287
_cell_formula_units_Z   4
loop_
 _symmetry_equiv_pos_site_id
 _symmetry_equiv_pos_as_xyz
  1  'x, y, z'
loop_
 _atom_site_type_symbol
 _atom_site_label
 _atom_site_symmetry_multiplicity
 _atom_site_fract_x
 _atom_site_fract_y
 _atom_site_fract_z
 _atom_site_occupancy
  Na  Na0  1  0.24414400  0.72531200  0.72531200  1
  Na  Na1  1  0.72531200  0.72531200  0.24414400  1
  Na  Na2  1  0.72531200  0.24414400  0.72531200  1
  Na  Na3  1  0.00000000  0.51883200  0.27468800  1
  Na  Na4  1  0.00000000  0.27468800  0.51883200  1
  Na  Na5  1  0.75585600  0.48116800  0.48116800  1
  Na  Na6  1  0.48116800  0.48116800  0.75585600  1
  Na  Na7  1  0.51883200  0.27468800  0.00000000  1
  Na  Na8  1  0.27468800  0.00000000  0.51883200  1
  Na  Na9  1  0.51883200  0.00000000  0.27468800  1
  Na  Na10  1  0.48116800  0.75585600  0.48116800  1
  Na  Na11  1  0.27468800  0.51883200  0.00000000  1
  Sb  Sb12  1  0.00000000  0.70970800  0.00000000  1
  Sb  Sb13  1  0.00000000  0.00000000  0.70970800  1
  Sb  Sb14  1  0.29029200  0.29029200  0.29029200  1
  Sb  Sb15  1  0.70970800  0.00000000  0.00000000  1
  O  O16  1  0.48016100  0.25951300  0.48016100  1
  O  O17  1  0.25951300  0.48016100  0.48016100  1
  O  O18  1  0.48016100  0.48016100  0.25951300  1
  O  O19  1  0.51983900  0.77935300  0.00000000  1
  O  O20  1  0.77935300  0.00000000  0.51983900  1
  O  O21  1  0.51983900  0.00000000  0.77935300  1
  O  O22  1  0.22064700  0.74048700  0.22064700  1
  O  O23  1  0.77935300  0.51983900  0.00000000  1
  O  O24  1  0.00000000  0.51983900  0.77935300  1
  O  O25  1  0.22064700  0.22064700  0.74048700  1
  O  O26  1  0.74048700  0.22064700  0.22064700  1
  O  O27  1  0.00000000  0.77935300  0.51983900  1
