# generated using pymatgen
data_K2MnS2
_symmetry_space_group_name_H-M   'P 1'
_cell_length_a   7.89991148
_cell_length_b   7.89991148
_cell_length_c   7.89991148
_cell_angle_alpha   132.97034637
_cell_angle_beta   127.93991182
_cell_angle_gamma   72.75522541
_symmetry_Int_Tables_number   1
_chemical_formula_structural   K2MnS2
_chemical_formula_sum   'K4 Mn2 S4'
_cell_volume   278.00776765
_cell_formula_units_Z   2
loop_
 _symmetry_equiv_pos_site_id
 _symmetry_equiv_pos_as_xyz
  1  'x, y, z'
loop_
 _atom_site_type_symbol
 _atom_site_label
 _atom_site_symmetry_multiplicity
 _atom_site_fract_x
 _atom_site_fract_y
 _atom_site_fract_z
 _atom_site_occupancy
  K  K0  1  0.19386100  0.35284400  0.84101700  1
  K  K1  1  0.48817300  0.14715600  0.34101700  1
  K  K2  1  0.80613900  0.64715600  0.15898300  1
  K  K3  1  0.51182700  0.85284400  0.65898300  1
  Mn  Mn4  1  0.00000000  0.25000000  0.25000000  1
  Mn  Mn5  1  0.00000000  0.75000000  0.75000000  1
  S  S6  1  0.70506700  0.39782200  0.30724400  1
  S  S7  1  0.90942200  0.10217800  0.80724400  1
  S  S8  1  0.29493300  0.60217800  0.69275600  1
  S  S9  1  0.09057800  0.89782200  0.19275600  1
