# generated using pymatgen
data_Sc3Si3Ni
_symmetry_space_group_name_H-M   'P 1'
_cell_length_a   5.30975959
_cell_length_b   5.30975959
_cell_length_c   12.82531256
_cell_angle_alpha   71.29892509
_cell_angle_beta   71.29892509
_cell_angle_gamma   44.09659053
_symmetry_Int_Tables_number   1
_chemical_formula_structural   Sc3Si3Ni
_chemical_formula_sum   'Sc6 Si6 Ni2'
_cell_volume   236.08548620
_cell_formula_units_Z   2
loop_
 _symmetry_equiv_pos_site_id
 _symmetry_equiv_pos_as_xyz
  1  'x, y, z'
loop_
 _atom_site_type_symbol
 _atom_site_label
 _atom_site_symmetry_multiplicity
 _atom_site_fract_x
 _atom_site_fract_y
 _atom_site_fract_z
 _atom_site_occupancy
  Sc  Sc0  1  0.60076500  0.60076500  0.07907700  1
  Sc  Sc1  1  0.47508900  0.47508900  0.37866200  1
  Sc  Sc2  1  0.74267900  0.74267900  0.77364400  1
  Sc  Sc3  1  0.52491100  0.52491100  0.62133800  1
  Sc  Sc4  1  0.39923500  0.39923500  0.92092300  1
  Sc  Sc5  1  0.25732100  0.25732100  0.22635600  1
  Si  Si6  1  0.96133400  0.96133400  0.23656300  1
  Si  Si7  1  0.86736100  0.86736100  0.54571400  1
  Si  Si8  1  0.13263900  0.13263900  0.45428600  1
  Si  Si9  1  0.11779800  0.11779800  0.92433400  1
  Si  Si10  1  0.03866600  0.03866600  0.76343700  1
  Si  Si11  1  0.88220200  0.88220200  0.07566600  1
  Ni  Ni12  1  0.24337500  0.24337500  0.59556900  1
  Ni  Ni13  1  0.75662500  0.75662500  0.40443100  1
