# generated using pymatgen
data_SeI2
_symmetry_space_group_name_H-M   'P 1'
_cell_length_a   8.46040700
_cell_length_b   8.46040700
_cell_length_c   3.93305100
_cell_angle_alpha   90.00000000
_cell_angle_beta   90.00000000
_cell_angle_gamma   90.00000000
_symmetry_Int_Tables_number   1
_chemical_formula_structural   SeI2
_chemical_formula_sum   'Se2 I4'
_cell_volume   281.52183832
_cell_formula_units_Z   2
loop_
 _symmetry_equiv_pos_site_id
 _symmetry_equiv_pos_as_xyz
  1  'x, y, z'
loop_
 _atom_site_type_symbol
 _atom_site_label
 _atom_site_symmetry_multiplicity
 _atom_site_fract_x
 _atom_site_fract_y
 _atom_site_fract_z
 _atom_site_occupancy
  Se  Se0  1  0.00000000  0.00000000  0.00000000  1
  Se  Se1  1  0.50000000  0.50000000  0.50000000  1
  I  I2  1  0.33119600  0.33119600  0.00000000  1
  I  I3  1  0.66880400  0.66880400  0.00000000  1
  I  I4  1  0.16880400  0.83119600  0.50000000  1
  I  I5  1  0.83119600  0.16880400  0.50000000  1
