# generated using pymatgen
data_CsRb2PdF5
_symmetry_space_group_name_H-M   'P 1'
_cell_length_a   7.74087000
_cell_length_b   7.74087000
_cell_length_c   6.54181100
_cell_angle_alpha   90.00000000
_cell_angle_beta   90.00000000
_cell_angle_gamma   90.00000000
_symmetry_Int_Tables_number   1
_chemical_formula_structural   CsRb2PdF5
_chemical_formula_sum   'Cs2 Rb4 Pd2 F10'
_cell_volume   391.99230411
_cell_formula_units_Z   2
loop_
 _symmetry_equiv_pos_site_id
 _symmetry_equiv_pos_as_xyz
  1  'x, y, z'
loop_
 _atom_site_type_symbol
 _atom_site_label
 _atom_site_symmetry_multiplicity
 _atom_site_fract_x
 _atom_site_fract_y
 _atom_site_fract_z
 _atom_site_occupancy
  Cs  Cs0  1  0.50000000  0.50000000  0.00000000  1
  Cs  Cs1  1  0.00000000  0.00000000  0.00000000  1
  Rb  Rb2  1  0.17812900  0.32187100  0.50000000  1
  Rb  Rb3  1  0.67812900  0.17812900  0.50000000  1
  Rb  Rb4  1  0.82187100  0.67812900  0.50000000  1
  Rb  Rb5  1  0.32187100  0.82187100  0.50000000  1
  Pd  Pd6  1  0.00000000  0.50000000  0.00000000  1
  Pd  Pd7  1  0.50000000  0.00000000  0.00000000  1
  F  F8  1  0.12864200  0.62864200  0.78410000  1
  F  F9  1  0.87135800  0.37135800  0.78410000  1
  F  F10  1  0.37135800  0.12864200  0.78410000  1
  F  F11  1  0.62864200  0.87135800  0.78410000  1
  F  F12  1  0.12864200  0.62864200  0.21590000  1
  F  F13  1  0.62864200  0.87135800  0.21590000  1
  F  F14  1  0.37135800  0.12864200  0.21590000  1
  F  F15  1  0.87135800  0.37135800  0.21590000  1
  F  F16  1  0.00000000  0.00000000  0.50000000  1
  F  F17  1  0.50000000  0.50000000  0.50000000  1
