# generated using pymatgen
data_KPPdS4
_symmetry_space_group_name_H-M   'P 1'
_cell_length_a   8.76130000
_cell_length_b   8.76130000
_cell_length_c   10.74041100
_cell_angle_alpha   90.00000000
_cell_angle_beta   90.00000000
_cell_angle_gamma   90.00000000
_symmetry_Int_Tables_number   1
_chemical_formula_structural   KPPdS4
_chemical_formula_sum   'K4 P4 Pd4 S16'
_cell_volume   824.43800491
_cell_formula_units_Z   4
loop_
 _symmetry_equiv_pos_site_id
 _symmetry_equiv_pos_as_xyz
  1  'x, y, z'
loop_
 _atom_site_type_symbol
 _atom_site_label
 _atom_site_symmetry_multiplicity
 _atom_site_fract_x
 _atom_site_fract_y
 _atom_site_fract_z
 _atom_site_occupancy
  K  K0  1  0.00000000  0.50000000  0.75000000  1
  K  K1  1  0.50000000  0.00000000  0.75000000  1
  K  K2  1  0.50000000  0.00000000  0.25000000  1
  K  K3  1  0.00000000  0.50000000  0.25000000  1
  P  P4  1  0.74893800  0.74893800  0.00000000  1
  P  P5  1  0.25106200  0.25106200  0.00000000  1
  P  P6  1  0.24893800  0.75106200  0.50000000  1
  P  P7  1  0.75106200  0.24893800  0.50000000  1
  Pd  Pd8  1  0.50000000  0.50000000  0.50000000  1
  Pd  Pd9  1  0.00000000  0.00000000  0.00000000  1
  Pd  Pd10  1  0.50000000  0.50000000  0.00000000  1
  Pd  Pd11  1  0.00000000  0.00000000  0.50000000  1
  S  S12  1  0.35746000  0.35746000  0.14641500  1
  S  S13  1  0.64254000  0.64254000  0.14641500  1
  S  S14  1  0.14254000  0.85746000  0.35358500  1
  S  S15  1  0.85746000  0.14254000  0.35358500  1
  S  S16  1  0.64254000  0.64254000  0.85358500  1
  S  S17  1  0.35746000  0.35746000  0.85358500  1
  S  S18  1  0.14254000  0.85746000  0.64641500  1
  S  S19  1  0.85746000  0.14254000  0.64641500  1
  S  S20  1  0.51695800  0.23236800  0.50000000  1
  S  S21  1  0.48304200  0.76763200  0.50000000  1
  S  S22  1  0.98304200  0.73236800  0.00000000  1
  S  S23  1  0.01695800  0.26763200  0.00000000  1
  S  S24  1  0.76763200  0.48304200  0.50000000  1
  S  S25  1  0.23236800  0.51695800  0.50000000  1
  S  S26  1  0.26763200  0.01695800  0.00000000  1
  S  S27  1  0.73236800  0.98304200  0.00000000  1
