# generated using pymatgen
data_Na2Hf2O5
_symmetry_space_group_name_H-M   'P 1'
_cell_length_a   3.98568500
_cell_length_b   3.98568500
_cell_length_c   8.05648700
_cell_angle_alpha   90.00000000
_cell_angle_beta   90.00000000
_cell_angle_gamma   90.00000000
_symmetry_Int_Tables_number   1
_chemical_formula_structural   Na2Hf2O5
_chemical_formula_sum   'Na2 Hf2 O5'
_cell_volume   127.98281404
_cell_formula_units_Z   1
loop_
 _symmetry_equiv_pos_site_id
 _symmetry_equiv_pos_as_xyz
  1  'x, y, z'
loop_
 _atom_site_type_symbol
 _atom_site_label
 _atom_site_symmetry_multiplicity
 _atom_site_fract_x
 _atom_site_fract_y
 _atom_site_fract_z
 _atom_site_occupancy
  Na  Na0  1  0.00000000  0.00000000  0.00000000  1
  Na  Na1  1  0.00000000  0.00000000  0.50000000  1
  Hf  Hf2  1  0.50000000  0.50000000  0.25252900  1
  Hf  Hf3  1  0.50000000  0.50000000  0.74747100  1
  O  O4  1  0.50000000  0.00000000  0.20076100  1
  O  O5  1  0.50000000  0.00000000  0.79923900  1
  O  O6  1  0.50000000  0.50000000  0.50000000  1
  O  O7  1  0.00000000  0.50000000  0.20076100  1
  O  O8  1  0.00000000  0.50000000  0.79923900  1
