# generated using pymatgen
data_TlBS2
_symmetry_space_group_name_H-M   'P 1'
_cell_length_a   8.41854139
_cell_length_b   8.41854139
_cell_length_c   8.41854077
_cell_angle_alpha   73.97803132
_cell_angle_beta   73.97803132
_cell_angle_gamma   73.97803747
_symmetry_Int_Tables_number   1
_chemical_formula_structural   TlBS2
_chemical_formula_sum   'Tl6 B6 S12'
_cell_volume   538.13726544
_cell_formula_units_Z   6
loop_
 _symmetry_equiv_pos_site_id
 _symmetry_equiv_pos_as_xyz
  1  'x, y, z'
loop_
 _atom_site_type_symbol
 _atom_site_label
 _atom_site_symmetry_multiplicity
 _atom_site_fract_x
 _atom_site_fract_y
 _atom_site_fract_z
 _atom_site_occupancy
  Tl  Tl0  1  0.31973900  0.72771900  0.72771900  1
  Tl  Tl1  1  0.72771900  0.31973900  0.72771900  1
  Tl  Tl2  1  0.72771900  0.72771900  0.31973900  1
  Tl  Tl3  1  0.68026100  0.27228100  0.27228100  1
  Tl  Tl4  1  0.27228100  0.68026100  0.27228100  1
  Tl  Tl5  1  0.27228100  0.27228100  0.68026100  1
  B  B6  1  0.10049300  0.40544400  0.10049300  1
  B  B7  1  0.10049300  0.10049300  0.40544400  1
  B  B8  1  0.40544400  0.10049300  0.10049300  1
  B  B9  1  0.89950700  0.89950700  0.59455600  1
  B  B10  1  0.59455600  0.89950700  0.89950700  1
  B  B11  1  0.89950700  0.59455600  0.89950700  1
  S  S12  1  0.96751200  0.35106100  0.96751200  1
  S  S13  1  0.35106100  0.96751200  0.96751200  1
  S  S14  1  0.96751200  0.96751200  0.35106100  1
  S  S15  1  0.64893900  0.03248800  0.03248800  1
  S  S16  1  0.03248800  0.03248800  0.64893900  1
  S  S17  1  0.03248800  0.64893900  0.03248800  1
  S  S18  1  0.97663200  0.66060900  0.66060900  1
  S  S19  1  0.66060900  0.66060900  0.97663200  1
  S  S20  1  0.66060900  0.97663200  0.66060900  1
  S  S21  1  0.33939100  0.02336800  0.33939100  1
  S  S22  1  0.02336800  0.33939100  0.33939100  1
  S  S23  1  0.33939100  0.33939100  0.02336800  1
