# generated using pymatgen
data_LiUO3
_symmetry_space_group_name_H-M   'P 1'
_cell_length_a   5.93316298
_cell_length_b   5.93316298
_cell_length_c   5.93316356
_cell_angle_alpha   55.01501194
_cell_angle_beta   55.01501194
_cell_angle_gamma   55.01500755
_symmetry_Int_Tables_number   1
_chemical_formula_structural   LiUO3
_chemical_formula_sum   'Li2 U2 O6'
_cell_volume   130.55895667
_cell_formula_units_Z   2
loop_
 _symmetry_equiv_pos_site_id
 _symmetry_equiv_pos_as_xyz
  1  'x, y, z'
loop_
 _atom_site_type_symbol
 _atom_site_label
 _atom_site_symmetry_multiplicity
 _atom_site_fract_x
 _atom_site_fract_y
 _atom_site_fract_z
 _atom_site_occupancy
  Li  Li0  1  0.53487700  0.53487700  0.53487700  1
  Li  Li1  1  0.03487700  0.03487700  0.03487700  1
  U  U2  1  0.76179700  0.76179700  0.76179700  1
  U  U3  1  0.26179700  0.26179700  0.26179700  1
  O  O4  1  0.15524000  0.49732500  0.87076100  1
  O  O5  1  0.37076100  0.99732500  0.65524000  1
  O  O6  1  0.99732500  0.65524000  0.37076100  1
  O  O7  1  0.65524000  0.37076100  0.99732500  1
  O  O8  1  0.87076100  0.15524000  0.49732500  1
  O  O9  1  0.49732500  0.87076100  0.15524000  1
