# generated using pymatgen
data_TmAlCu
_symmetry_space_group_name_H-M   'P 1'
_cell_length_a   6.99522204
_cell_length_b   6.99522204
_cell_length_c   3.92218500
_cell_angle_alpha   90.00000000
_cell_angle_beta   90.00000000
_cell_angle_gamma   120.00000035
_symmetry_Int_Tables_number   1
_chemical_formula_structural   TmAlCu
_chemical_formula_sum   'Tm3 Al3 Cu3'
_cell_volume   166.21174644
_cell_formula_units_Z   3
loop_
 _symmetry_equiv_pos_site_id
 _symmetry_equiv_pos_as_xyz
  1  'x, y, z'
loop_
 _atom_site_type_symbol
 _atom_site_label
 _atom_site_symmetry_multiplicity
 _atom_site_fract_x
 _atom_site_fract_y
 _atom_site_fract_z
 _atom_site_occupancy
  Tm  Tm0  1  0.58571400  0.00000000  0.00000000  1
  Tm  Tm1  1  0.00000000  0.58571400  0.00000000  1
  Tm  Tm2  1  0.41428600  0.41428600  0.00000000  1
  Al  Al3  1  0.23803500  0.00000000  0.50000000  1
  Al  Al4  1  0.00000000  0.23803500  0.50000000  1
  Al  Al5  1  0.76196500  0.76196500  0.50000000  1
  Cu  Cu6  1  0.00000000  0.00000000  0.00000000  1
  Cu  Cu7  1  0.33333300  0.66666700  0.50000000  1
  Cu  Cu8  1  0.66666700  0.33333300  0.50000000  1
