# generated using pymatgen
data_Na2Nb3O6
_symmetry_space_group_name_H-M   'P 1'
_cell_length_a   5.16871296
_cell_length_b   5.16871296
_cell_length_c   23.66905600
_cell_angle_alpha   90.00000000
_cell_angle_beta   90.00000000
_cell_angle_gamma   120.00001223
_symmetry_Int_Tables_number   1
_chemical_formula_structural   Na2Nb3O6
_chemical_formula_sum   'Na8 Nb12 O24'
_cell_volume   547.61627141
_cell_formula_units_Z   4
loop_
 _symmetry_equiv_pos_site_id
 _symmetry_equiv_pos_as_xyz
  1  'x, y, z'
loop_
 _atom_site_type_symbol
 _atom_site_label
 _atom_site_symmetry_multiplicity
 _atom_site_fract_x
 _atom_site_fract_y
 _atom_site_fract_z
 _atom_site_occupancy
  Na  Na0  1  0.00000000  0.00000000  0.75000000  1
  Na  Na1  1  0.00000000  0.00000000  0.25000000  1
  Na  Na2  1  0.66666700  0.33333300  0.50005700  1
  Na  Na3  1  0.66666700  0.33333300  0.75000000  1
  Na  Na4  1  0.66666700  0.33333300  0.99994300  1
  Na  Na5  1  0.33333300  0.66666700  0.00005700  1
  Na  Na6  1  0.33333300  0.66666700  0.25000000  1
  Na  Na7  1  0.33333300  0.66666700  0.49994300  1
  Nb  Nb8  1  0.32887600  0.99554900  0.62499400  1
  Nb  Nb9  1  0.33332700  0.00445100  0.12499400  1
  Nb  Nb10  1  0.33332700  0.32887600  0.37500600  1
  Nb  Nb11  1  0.32887600  0.33332700  0.87500600  1
  Nb  Nb12  1  0.67112400  0.66667300  0.12499400  1
  Nb  Nb13  1  0.66667300  0.67112400  0.62499400  1
  Nb  Nb14  1  0.66667300  0.99554900  0.87500600  1
  Nb  Nb15  1  0.67112400  0.00445100  0.37500600  1
  Nb  Nb16  1  0.99554900  0.32887600  0.12499400  1
  Nb  Nb17  1  0.00445100  0.33332700  0.62499400  1
  Nb  Nb18  1  0.99554900  0.66667300  0.37500600  1
  Nb  Nb19  1  0.00445100  0.67112400  0.87500600  1
  O  O20  1  0.33489500  0.00511700  0.82174400  1
  O  O21  1  0.32977700  0.99488300  0.32174400  1
  O  O22  1  0.33845200  0.00154300  0.92816700  1
  O  O23  1  0.32977700  0.33489500  0.17825600  1
  O  O24  1  0.33690900  0.33845200  0.07183300  1
  O  O25  1  0.33690900  0.99845700  0.42816700  1
  O  O26  1  0.33489500  0.32977700  0.67825600  1
  O  O27  1  0.33845200  0.33690900  0.57183300  1
  O  O28  1  0.66510500  0.67022300  0.32174400  1
  O  O29  1  0.67022300  0.66510500  0.82174400  1
  O  O30  1  0.66309100  0.00154300  0.57183300  1
  O  O31  1  0.67022300  0.00511700  0.67825600  1
  O  O32  1  0.66510500  0.99488300  0.17825600  1
  O  O33  1  0.66154800  0.99845700  0.07183300  1
  O  O34  1  0.66309100  0.66154800  0.92816700  1
  O  O35  1  0.66154800  0.66309100  0.42816700  1
  O  O36  1  0.00511700  0.33489500  0.32174400  1
  O  O37  1  0.99488300  0.32977700  0.82174400  1
  O  O38  1  0.99845700  0.33690900  0.92816700  1
  O  O39  1  0.99845700  0.66154800  0.57183300  1
  O  O40  1  0.99488300  0.66510500  0.67825600  1
  O  O41  1  0.00154300  0.66309100  0.07183300  1
  O  O42  1  0.00511700  0.67022300  0.17825600  1
  O  O43  1  0.00154300  0.33845200  0.42816700  1
