# generated using pymatgen
data_FeH10N2Cl5O
_symmetry_space_group_name_H-M   'P 1'
_cell_length_a   7.17052400
_cell_length_b   9.95730200
_cell_length_c   13.92887900
_cell_angle_alpha   90.00000000
_cell_angle_beta   90.00000000
_cell_angle_gamma   90.00000000
_symmetry_Int_Tables_number   1
_chemical_formula_structural   FeH10N2Cl5O
_chemical_formula_sum   'Fe4 H40 N8 Cl20 O4'
_cell_volume   994.50904806
_cell_formula_units_Z   4
loop_
 _symmetry_equiv_pos_site_id
 _symmetry_equiv_pos_as_xyz
  1  'x, y, z'
loop_
 _atom_site_type_symbol
 _atom_site_label
 _atom_site_symmetry_multiplicity
 _atom_site_fract_x
 _atom_site_fract_y
 _atom_site_fract_z
 _atom_site_occupancy
  Fe  Fe0  1  0.18731000  0.25000000  0.11981800  1
  Fe  Fe1  1  0.68731000  0.75000000  0.38018200  1
  Fe  Fe2  1  0.31269000  0.25000000  0.61981800  1
  Fe  Fe3  1  0.81269000  0.75000000  0.88018200  1
  H  H4  1  0.05194400  0.66939300  0.02959600  1
  H  H5  1  0.05194400  0.83060700  0.02959600  1
  H  H6  1  0.65330800  0.58058700  0.09865800  1
  H  H7  1  0.65330800  0.91941300  0.09865800  1
  H  H8  1  0.62719100  0.08817400  0.10592500  1
  H  H9  1  0.62719100  0.41182600  0.10592500  1
  H  H10  1  0.81721800  0.01547400  0.15466600  1
  H  H11  1  0.81721800  0.48452600  0.15466600  1
  H  H12  1  0.60811600  0.99296800  0.20544300  1
  H  H13  1  0.60811600  0.50703200  0.20544300  1
  H  H14  1  0.10811600  0.49296800  0.29455700  1
  H  H15  1  0.10811600  0.00703200  0.29455700  1
  H  H16  1  0.31721800  0.98452600  0.34533400  1
  H  H17  1  0.31721800  0.51547400  0.34533400  1
  H  H18  1  0.12719100  0.58817400  0.39407500  1
  H  H19  1  0.12719100  0.91182600  0.39407500  1
  H  H20  1  0.15330800  0.08058700  0.40134200  1
  H  H21  1  0.15330800  0.41941300  0.40134200  1
  H  H22  1  0.55194400  0.16939300  0.47040400  1
  H  H23  1  0.55194400  0.33060700  0.47040400  1
  H  H24  1  0.44805600  0.66939300  0.52959600  1
  H  H25  1  0.44805600  0.83060700  0.52959600  1
  H  H26  1  0.84669200  0.58058700  0.59865800  1
  H  H27  1  0.84669200  0.91941300  0.59865800  1
  H  H28  1  0.87280900  0.08817400  0.60592500  1
  H  H29  1  0.87280900  0.41182600  0.60592500  1
  H  H30  1  0.68278200  0.48452600  0.65466600  1
  H  H31  1  0.68278200  0.01547400  0.65466600  1
  H  H32  1  0.89188400  0.99296800  0.70544300  1
  H  H33  1  0.89188400  0.50703200  0.70544300  1
  H  H34  1  0.39188400  0.49296800  0.79455700  1
  H  H35  1  0.39188400  0.00703200  0.79455700  1
  H  H36  1  0.18278200  0.98452600  0.84533400  1
  H  H37  1  0.18278200  0.51547400  0.84533400  1
  H  H38  1  0.37280900  0.58817400  0.89407500  1
  H  H39  1  0.37280900  0.91182600  0.89407500  1
  H  H40  1  0.34669200  0.08058700  0.90134200  1
  H  H41  1  0.34669200  0.41941300  0.90134200  1
  H  H42  1  0.94805600  0.16939300  0.97040400  1
  H  H43  1  0.94805600  0.33060700  0.97040400  1
  N  N44  1  0.67671800  0.00371200  0.14094200  1
  N  N45  1  0.67671800  0.49628800  0.14094200  1
  N  N46  1  0.17671800  0.50371200  0.35905800  1
  N  N47  1  0.17671800  0.99628800  0.35905800  1
  N  N48  1  0.82328200  0.00371200  0.64094200  1
  N  N49  1  0.82328200  0.49628800  0.64094200  1
  N  N50  1  0.32328200  0.50371200  0.85905800  1
  N  N51  1  0.32328200  0.99628800  0.85905800  1
  Cl  Cl52  1  0.45514700  0.25000000  0.00585100  1
  Cl  Cl53  1  0.17259500  0.00897400  0.10621800  1
  Cl  Cl54  1  0.17259500  0.49102600  0.10621800  1
  Cl  Cl55  1  0.93043200  0.25000000  0.22482100  1
  Cl  Cl56  1  0.39805000  0.25000000  0.24633600  1
  Cl  Cl57  1  0.89805000  0.75000000  0.25366400  1
  Cl  Cl58  1  0.43043200  0.75000000  0.27517900  1
  Cl  Cl59  1  0.67259500  0.50897400  0.39378200  1
  Cl  Cl60  1  0.67259500  0.99102600  0.39378200  1
  Cl  Cl61  1  0.95514700  0.75000000  0.49414900  1
  Cl  Cl62  1  0.04485300  0.25000000  0.50585100  1
  Cl  Cl63  1  0.32740500  0.00897400  0.60621800  1
  Cl  Cl64  1  0.32740500  0.49102600  0.60621800  1
  Cl  Cl65  1  0.56956800  0.25000000  0.72482100  1
  Cl  Cl66  1  0.10195000  0.25000000  0.74633600  1
  Cl  Cl67  1  0.60195000  0.75000000  0.75366400  1
  Cl  Cl68  1  0.06956800  0.75000000  0.77517900  1
  Cl  Cl69  1  0.82740500  0.50897400  0.89378200  1
  Cl  Cl70  1  0.82740500  0.99102600  0.89378200  1
  Cl  Cl71  1  0.54485300  0.75000000  0.99414900  1
  O  O72  1  0.99312700  0.75000000  0.00191800  1
  O  O73  1  0.49312700  0.25000000  0.49808200  1
  O  O74  1  0.50687300  0.75000000  0.50191800  1
  O  O75  1  0.00687300  0.25000000  0.99808200  1
