# generated using pymatgen
data_LiB3P(HO3)3
_symmetry_space_group_name_H-M   'P 1'
_cell_length_a   8.88380600
_cell_length_b   11.61225000
_cell_length_c   14.00505200
_cell_angle_alpha   90.00000000
_cell_angle_beta   90.00000000
_cell_angle_gamma   90.00000000
_symmetry_Int_Tables_number   1
_chemical_formula_structural   LiB3P(HO3)3
_chemical_formula_sum   'Li8 B24 P8 H24 O72'
_cell_volume   1444.77483638
_cell_formula_units_Z   8
loop_
 _symmetry_equiv_pos_site_id
 _symmetry_equiv_pos_as_xyz
  1  'x, y, z'
loop_
 _atom_site_type_symbol
 _atom_site_label
 _atom_site_symmetry_multiplicity
 _atom_site_fract_x
 _atom_site_fract_y
 _atom_site_fract_z
 _atom_site_occupancy
  Li  Li0  1  0.17992300  0.00000000  0.25000000  1
  Li  Li1  1  0.48688300  0.00000000  0.25000000  1
  Li  Li2  1  0.51311700  0.00000000  0.75000000  1
  Li  Li3  1  0.82007700  0.00000000  0.75000000  1
  Li  Li4  1  0.67992300  0.50000000  0.25000000  1
  Li  Li5  1  0.01311700  0.50000000  0.75000000  1
  Li  Li6  1  0.32007700  0.50000000  0.75000000  1
  Li  Li7  1  0.98688300  0.50000000  0.25000000  1
  B  B8  1  0.03138100  0.14674000  0.08153700  1
  B  B9  1  0.96861900  0.14674000  0.58153700  1
  B  B10  1  0.53070000  0.14522800  0.07496000  1
  B  B11  1  0.46930000  0.14522800  0.57496000  1
  B  B12  1  0.08914600  0.24429100  0.44241800  1
  B  B13  1  0.91085400  0.24429100  0.94241800  1
  B  B14  1  0.41085400  0.25570900  0.94241800  1
  B  B15  1  0.58914600  0.25570900  0.44241800  1
  B  B16  1  0.03070000  0.35477200  0.07496000  1
  B  B17  1  0.96930000  0.35477200  0.57496000  1
  B  B18  1  0.53138100  0.35326000  0.08153700  1
  B  B19  1  0.46861900  0.35326000  0.58153700  1
  B  B20  1  0.46861900  0.64674000  0.91846300  1
  B  B21  1  0.53138100  0.64674000  0.41846300  1
  B  B22  1  0.03070000  0.64522800  0.42504000  1
  B  B23  1  0.96930000  0.64522800  0.92504000  1
  B  B24  1  0.41085400  0.74429100  0.55758200  1
  B  B25  1  0.58914600  0.74429100  0.05758200  1
  B  B26  1  0.08914600  0.75570900  0.05758200  1
  B  B27  1  0.91085400  0.75570900  0.55758200  1
  B  B28  1  0.46930000  0.85477200  0.92504000  1
  B  B29  1  0.53070000  0.85477200  0.42504000  1
  B  B30  1  0.03138100  0.85326000  0.41846300  1
  B  B31  1  0.96861900  0.85326000  0.91846300  1
  P  P32  1  0.34201300  0.23088700  0.32601700  1
  P  P33  1  0.65798700  0.23088700  0.82601700  1
  P  P34  1  0.15798700  0.26911300  0.82601700  1
  P  P35  1  0.84201300  0.26911300  0.32601700  1
  P  P36  1  0.15798700  0.73088700  0.67398300  1
  P  P37  1  0.84201300  0.73088700  0.17398300  1
  P  P38  1  0.34201300  0.76911300  0.17398300  1
  P  P39  1  0.65798700  0.76911300  0.67398300  1
  H  H40  1  0.06283900  0.97932700  0.08446000  1
  H  H41  1  0.93716100  0.97932700  0.58446000  1
  H  H42  1  0.56279900  0.02516700  0.42260200  1
  H  H43  1  0.43720100  0.02516700  0.92260200  1
  H  H44  1  0.28538600  0.20591000  0.70373400  1
  H  H45  1  0.71461400  0.20591000  0.20373400  1
  H  H46  1  0.21461400  0.29409000  0.20373400  1
  H  H47  1  0.78538600  0.29409000  0.70373400  1
  H  H48  1  0.06279900  0.47483300  0.42260200  1
  H  H49  1  0.93720100  0.47483300  0.92260200  1
  H  H50  1  0.56283900  0.52067300  0.08446000  1
  H  H51  1  0.43716100  0.52067300  0.58446000  1
  H  H52  1  0.43716100  0.47932700  0.91554000  1
  H  H53  1  0.56283900  0.47932700  0.41554000  1
  H  H54  1  0.06279900  0.52516700  0.07739800  1
  H  H55  1  0.93720100  0.52516700  0.57739800  1
  H  H56  1  0.78538600  0.70591000  0.79626600  1
  H  H57  1  0.21461400  0.70591000  0.29626600  1
  H  H58  1  0.28538600  0.79409000  0.79626600  1
  H  H59  1  0.71461400  0.79409000  0.29626600  1
  H  H60  1  0.43720100  0.97483300  0.57739800  1
  H  H61  1  0.56279900  0.97483300  0.07739800  1
  H  H62  1  0.06283900  0.02067300  0.41554000  1
  H  H63  1  0.93716100  0.02067300  0.91554000  1
  O  O64  1  0.57194300  0.04444600  0.11901500  1
  O  O65  1  0.42805700  0.04444600  0.61901500  1
  O  O66  1  0.08232200  0.04786600  0.12487600  1
  O  O67  1  0.91767800  0.04786600  0.62487600  1
  O  O68  1  0.33245100  0.11013400  0.28703600  1
  O  O69  1  0.66754900  0.11013400  0.78703600  1
  O  O70  1  0.94387400  0.14266300  0.00133100  1
  O  O71  1  0.05612600  0.14266300  0.50133100  1
  O  O72  1  0.54864200  0.14719700  0.49128000  1
  O  O73  1  0.45135800  0.14719700  0.99128000  1
  O  O74  1  0.79157600  0.17684500  0.24966600  1
  O  O75  1  0.20842400  0.17684500  0.74966600  1
  O  O76  1  0.00640400  0.23278000  0.35018000  1
  O  O77  1  0.99359600  0.23278000  0.85018000  1
  O  O78  1  0.25151500  0.24796900  0.42062600  1
  O  O79  1  0.74848500  0.24796900  0.92062600  1
  O  O80  1  0.42697400  0.24699000  0.62123500  1
  O  O81  1  0.57302600  0.24699000  0.12123500  1
  O  O82  1  0.07302600  0.25301000  0.12123500  1
  O  O83  1  0.92697400  0.25301000  0.62123500  1
  O  O84  1  0.75151500  0.25203100  0.42062600  1
  O  O85  1  0.24848500  0.25203100  0.92062600  1
  O  O86  1  0.49359600  0.26722000  0.85018000  1
  O  O87  1  0.50640400  0.26722000  0.35018000  1
  O  O88  1  0.29157600  0.32315500  0.24966600  1
  O  O89  1  0.70842400  0.32315500  0.74966600  1
  O  O90  1  0.04864200  0.35280300  0.49128000  1
  O  O91  1  0.95135800  0.35280300  0.99128000  1
  O  O92  1  0.55612600  0.35733700  0.50133100  1
  O  O93  1  0.44387400  0.35733700  0.00133100  1
  O  O94  1  0.83245100  0.38986600  0.28703600  1
  O  O95  1  0.16754900  0.38986600  0.78703600  1
  O  O96  1  0.58232200  0.45213400  0.12487600  1
  O  O97  1  0.41767800  0.45213400  0.62487600  1
  O  O98  1  0.07194300  0.45555400  0.11901500  1
  O  O99  1  0.92805700  0.45555400  0.61901500  1
  O  O100  1  0.07194300  0.54444600  0.38098500  1
  O  O101  1  0.92805700  0.54444600  0.88098500  1
  O  O102  1  0.58232200  0.54786600  0.37512400  1
  O  O103  1  0.41767800  0.54786600  0.87512400  1
  O  O104  1  0.83245100  0.61013400  0.21296400  1
  O  O105  1  0.16754900  0.61013400  0.71296400  1
  O  O106  1  0.44387400  0.64266300  0.49866900  1
  O  O107  1  0.55612600  0.64266300  0.99866900  1
  O  O108  1  0.04864200  0.64719700  0.00872000  1
  O  O109  1  0.95135800  0.64719700  0.50872000  1
  O  O110  1  0.29157600  0.67684500  0.25033400  1
  O  O111  1  0.70842400  0.67684500  0.75033400  1
  O  O112  1  0.49359600  0.73278000  0.64982000  1
  O  O113  1  0.50640400  0.73278000  0.14982000  1
  O  O114  1  0.24848500  0.74796900  0.57937400  1
  O  O115  1  0.75151500  0.74796900  0.07937400  1
  O  O116  1  0.92697400  0.74699000  0.87876500  1
  O  O117  1  0.07302600  0.74699000  0.37876500  1
  O  O118  1  0.42697400  0.75301000  0.87876500  1
  O  O119  1  0.57302600  0.75301000  0.37876500  1
  O  O120  1  0.25151500  0.75203100  0.07937400  1
  O  O121  1  0.74848500  0.75203100  0.57937400  1
  O  O122  1  0.00640400  0.76722000  0.14982000  1
  O  O123  1  0.99359600  0.76722000  0.64982000  1
  O  O124  1  0.20842400  0.82315500  0.75033400  1
  O  O125  1  0.79157600  0.82315500  0.25033400  1
  O  O126  1  0.45135800  0.85280300  0.50872000  1
  O  O127  1  0.54864200  0.85280300  0.00872000  1
  O  O128  1  0.05612600  0.85733700  0.99866900  1
  O  O129  1  0.94387400  0.85733700  0.49866900  1
  O  O130  1  0.33245100  0.88986600  0.21296400  1
  O  O131  1  0.66754900  0.88986600  0.71296400  1
  O  O132  1  0.08232200  0.95213400  0.37512400  1
  O  O133  1  0.91767800  0.95213400  0.87512400  1
  O  O134  1  0.42805700  0.95555400  0.88098500  1
  O  O135  1  0.57194300  0.95555400  0.38098500  1
