# generated using pymatgen
data_MgSb2H2F14
_symmetry_space_group_name_H-M   'P 1'
_cell_length_a   7.06448100
_cell_length_b   12.54958700
_cell_length_c   12.67159900
_cell_angle_alpha   90.00000000
_cell_angle_beta   90.00000000
_cell_angle_gamma   90.00000000
_symmetry_Int_Tables_number   1
_chemical_formula_structural   MgSb2H2F14
_chemical_formula_sum   'Mg4 Sb8 H8 F56'
_cell_volume   1123.41732216
_cell_formula_units_Z   4
loop_
 _symmetry_equiv_pos_site_id
 _symmetry_equiv_pos_as_xyz
  1  'x, y, z'
loop_
 _atom_site_type_symbol
 _atom_site_label
 _atom_site_symmetry_multiplicity
 _atom_site_fract_x
 _atom_site_fract_y
 _atom_site_fract_z
 _atom_site_occupancy
  Mg  Mg0  1  0.28021900  0.25000000  0.09121600  1
  Mg  Mg1  1  0.78021900  0.75000000  0.40878400  1
  Mg  Mg2  1  0.21978100  0.25000000  0.59121600  1
  Mg  Mg3  1  0.71978100  0.75000000  0.90878400  1
  Sb  Sb4  1  0.00000000  0.00000000  0.00000000  1
  Sb  Sb5  1  0.00000000  0.50000000  0.00000000  1
  Sb  Sb6  1  0.45274600  0.75000000  0.17239600  1
  Sb  Sb7  1  0.95274600  0.25000000  0.32760400  1
  Sb  Sb8  1  0.50000000  0.50000000  0.50000000  1
  Sb  Sb9  1  0.50000000  0.00000000  0.50000000  1
  Sb  Sb10  1  0.04725400  0.75000000  0.67239600  1
  Sb  Sb11  1  0.54725400  0.25000000  0.82760400  1
  H  H12  1  0.59493800  0.11481800  0.11453500  1
  H  H13  1  0.59493800  0.38518200  0.11453500  1
  H  H14  1  0.09493800  0.61481800  0.38546500  1
  H  H15  1  0.09493800  0.88518200  0.38546500  1
  H  H16  1  0.90506200  0.11481800  0.61453500  1
  H  H17  1  0.90506200  0.38518200  0.61453500  1
  H  H18  1  0.40506200  0.61481800  0.88546500  1
  H  H19  1  0.40506200  0.88518200  0.88546500  1
  F  F20  1  0.74721500  0.03931000  0.04277800  1
  F  F21  1  0.74721500  0.46069000  0.04277800  1
  F  F22  1  0.09073300  0.13720400  0.05290600  1
  F  F23  1  0.09073300  0.36279600  0.05290600  1
  F  F24  1  0.64092600  0.75000000  0.05738000  1
  F  F25  1  0.26077100  0.75000000  0.06739600  1
  F  F26  1  0.46761200  0.13678400  0.13356600  1
  F  F27  1  0.46761200  0.36321600  0.13356600  1
  F  F28  1  0.03813100  0.55982000  0.13499200  1
  F  F29  1  0.03813100  0.94018000  0.13499200  1
  F  F30  1  0.46984500  0.59940100  0.17353800  1
  F  F31  1  0.46984500  0.90059900  0.17353800  1
  F  F32  1  0.78987200  0.25000000  0.20762600  1
  F  F33  1  0.17836400  0.25000000  0.23558600  1
  F  F34  1  0.67836400  0.75000000  0.26441400  1
  F  F35  1  0.28987200  0.75000000  0.29237400  1
  F  F36  1  0.96984500  0.09940100  0.32646200  1
  F  F37  1  0.96984500  0.40059900  0.32646200  1
  F  F38  1  0.53813100  0.05982000  0.36500800  1
  F  F39  1  0.53813100  0.44018000  0.36500800  1
  F  F40  1  0.96761200  0.63678400  0.36643400  1
  F  F41  1  0.96761200  0.86321600  0.36643400  1
  F  F42  1  0.76077100  0.25000000  0.43260400  1
  F  F43  1  0.14092600  0.25000000  0.44262000  1
  F  F44  1  0.59073300  0.63720400  0.44709400  1
  F  F45  1  0.59073300  0.86279600  0.44709400  1
  F  F46  1  0.24721500  0.53931000  0.45722200  1
  F  F47  1  0.24721500  0.96069000  0.45722200  1
  F  F48  1  0.75278500  0.03931000  0.54277800  1
  F  F49  1  0.75278500  0.46069000  0.54277800  1
  F  F50  1  0.40926700  0.13720400  0.55290600  1
  F  F51  1  0.40926700  0.36279600  0.55290600  1
  F  F52  1  0.85907400  0.75000000  0.55738000  1
  F  F53  1  0.23922900  0.75000000  0.56739600  1
  F  F54  1  0.03238800  0.13678400  0.63356600  1
  F  F55  1  0.03238800  0.36321600  0.63356600  1
  F  F56  1  0.46186900  0.55982000  0.63499200  1
  F  F57  1  0.46186900  0.94018000  0.63499200  1
  F  F58  1  0.03015500  0.59940100  0.67353800  1
  F  F59  1  0.03015500  0.90059900  0.67353800  1
  F  F60  1  0.71012800  0.25000000  0.70762600  1
  F  F61  1  0.32163600  0.25000000  0.73558600  1
  F  F62  1  0.82163600  0.75000000  0.76441400  1
  F  F63  1  0.21012800  0.75000000  0.79237400  1
  F  F64  1  0.53015500  0.09940100  0.82646200  1
  F  F65  1  0.53015500  0.40059900  0.82646200  1
  F  F66  1  0.96186900  0.05982000  0.86500800  1
  F  F67  1  0.96186900  0.44018000  0.86500800  1
  F  F68  1  0.53238800  0.63678400  0.86643400  1
  F  F69  1  0.53238800  0.86321600  0.86643400  1
  F  F70  1  0.73922900  0.25000000  0.93260400  1
  F  F71  1  0.35907400  0.25000000  0.94262000  1
  F  F72  1  0.90926700  0.63720400  0.94709400  1
  F  F73  1  0.90926700  0.86279600  0.94709400  1
  F  F74  1  0.25278500  0.96069000  0.95722200  1
  F  F75  1  0.25278500  0.53931000  0.95722200  1
