# generated using pymatgen
data_TbB4Ru
_symmetry_space_group_name_H-M   'P 1'
_cell_length_a   3.56963600
_cell_length_b   5.97629300
_cell_length_c   11.55952100
_cell_angle_alpha   90.00000000
_cell_angle_beta   90.00000000
_cell_angle_gamma   90.00000000
_symmetry_Int_Tables_number   1
_chemical_formula_structural   TbB4Ru
_chemical_formula_sum   'Tb4 B16 Ru4'
_cell_volume   246.60146519
_cell_formula_units_Z   4
loop_
 _symmetry_equiv_pos_site_id
 _symmetry_equiv_pos_as_xyz
  1  'x, y, z'
loop_
 _atom_site_type_symbol
 _atom_site_label
 _atom_site_symmetry_multiplicity
 _atom_site_fract_x
 _atom_site_fract_y
 _atom_site_fract_z
 _atom_site_occupancy
  Tb  Tb0  1  0.50000000  0.12873000  0.14996100  1
  Tb  Tb1  1  0.50000000  0.87127000  0.85003900  1
  Tb  Tb2  1  0.50000000  0.62873000  0.35003900  1
  Tb  Tb3  1  0.50000000  0.37127000  0.64996100  1
  B  B4  1  0.00000000  0.47593100  0.19150400  1
  B  B5  1  0.00000000  0.52406900  0.80849600  1
  B  B6  1  0.00000000  0.97593100  0.30849600  1
  B  B7  1  0.00000000  0.02406900  0.69150400  1
  B  B8  1  0.00000000  0.28880400  0.31468800  1
  B  B9  1  0.00000000  0.71119600  0.68531200  1
  B  B10  1  0.00000000  0.78880400  0.18531200  1
  B  B11  1  0.00000000  0.21119600  0.81468800  1
  B  B12  1  0.00000000  0.36371500  0.46944400  1
  B  B13  1  0.00000000  0.63628500  0.53055600  1
  B  B14  1  0.00000000  0.86371500  0.03055600  1
  B  B15  1  0.00000000  0.13628500  0.96944400  1
  B  B16  1  0.00000000  0.38813400  0.04655100  1
  B  B17  1  0.00000000  0.61186600  0.95344900  1
  B  B18  1  0.00000000  0.88813400  0.45344900  1
  B  B19  1  0.00000000  0.11186600  0.54655100  1
  Ru  Ru20  1  0.50000000  0.13943100  0.40774200  1
  Ru  Ru21  1  0.50000000  0.86056900  0.59225800  1
  Ru  Ru22  1  0.50000000  0.63943100  0.09225800  1
  Ru  Ru23  1  0.50000000  0.36056900  0.90774200  1
