# generated using pymatgen
data_Gd2ZnRu
_symmetry_space_group_name_H-M   'P 1'
_cell_length_a   4.96399779
_cell_length_b   4.96381041
_cell_length_c   4.96385637
_cell_angle_alpha   59.99904341
_cell_angle_beta   60.00049948
_cell_angle_gamma   59.99821406
_symmetry_Int_Tables_number   1
_chemical_formula_structural   Gd2ZnRu
_chemical_formula_sum   'Gd2 Zn1 Ru1'
_cell_volume   86.48556190
_cell_formula_units_Z   1
loop_
 _symmetry_equiv_pos_site_id
 _symmetry_equiv_pos_as_xyz
  1  'x, y, z'
loop_
 _atom_site_type_symbol
 _atom_site_label
 _atom_site_symmetry_multiplicity
 _atom_site_fract_x
 _atom_site_fract_y
 _atom_site_fract_z
 _atom_site_occupancy
  Gd  Gd0  1  0.50010300  0.50011200  0.50010200  1
  Gd  Gd1  1  0.99989700  0.99989600  0.99989200  1
  Zn  Zn2  1  0.75000100  0.75000000  0.75000300  1
  Ru  Ru3  1  0.25000000  0.24999300  0.25000400  1
