# generated using pymatgen
data_AlTlSe2
_symmetry_space_group_name_H-M   'P 1'
_cell_length_a   7.74724885
_cell_length_b   7.74724885
_cell_length_c   15.85404534
_cell_angle_alpha   82.93638626
_cell_angle_beta   82.93638626
_cell_angle_gamma   90.03056120
_symmetry_Int_Tables_number   1
_chemical_formula_structural   AlTlSe2
_chemical_formula_sum   'Al8 Tl8 Se16'
_cell_volume   937.04986078
_cell_formula_units_Z   8
loop_
 _symmetry_equiv_pos_site_id
 _symmetry_equiv_pos_as_xyz
  1  'x, y, z'
loop_
 _atom_site_type_symbol
 _atom_site_label
 _atom_site_symmetry_multiplicity
 _atom_site_fract_x
 _atom_site_fract_y
 _atom_site_fract_z
 _atom_site_occupancy
  Al  Al0  1  0.42023500  0.29042700  0.83980100  1
  Al  Al1  1  0.70957300  0.57976500  0.66019900  1
  Al  Al2  1  0.57976500  0.70957300  0.16019900  1
  Al  Al3  1  0.29042700  0.42023500  0.33980100  1
  Al  Al4  1  0.70954800  0.08841900  0.66138000  1
  Al  Al5  1  0.91158100  0.29045200  0.83862000  1
  Al  Al6  1  0.29045200  0.91158100  0.33862000  1
  Al  Al7  1  0.08841900  0.70954800  0.16138000  1
  Tl  Tl8  1  0.65495700  0.77936800  0.88033300  1
  Tl  Tl9  1  0.22063200  0.34504300  0.61966700  1
  Tl  Tl10  1  0.34504300  0.22063200  0.11966700  1
  Tl  Tl11  1  0.77936800  0.65495700  0.38033300  1
  Tl  Tl12  1  0.22512100  0.84992000  0.61103000  1
  Tl  Tl13  1  0.15008000  0.77487900  0.88897000  1
  Tl  Tl14  1  0.77487900  0.15008000  0.38897000  1
  Tl  Tl15  1  0.84992000  0.22512100  0.11103000  1
  Se  Se16  1  0.64330400  0.26891400  0.93391400  1
  Se  Se17  1  0.73108600  0.35669600  0.56608600  1
  Se  Se18  1  0.35669600  0.73108600  0.06608600  1
  Se  Se19  1  0.26891400  0.64330400  0.43391400  1
  Se  Se20  1  0.43178900  0.05499700  0.75150100  1
  Se  Se21  1  0.94500300  0.56821100  0.74849900  1
  Se  Se22  1  0.56821100  0.94500300  0.24849900  1
  Se  Se23  1  0.05499700  0.43178900  0.25150100  1
  Se  Se24  1  0.43170700  0.56829300  0.75000000  1
  Se  Se25  1  0.56829300  0.43170700  0.25000000  1
  Se  Se26  1  0.94456000  0.05544000  0.75000000  1
  Se  Se27  1  0.05544000  0.94456000  0.25000000  1
  Se  Se28  1  0.73079300  0.85753000  0.57074400  1
  Se  Se29  1  0.14247000  0.26920700  0.92925600  1
  Se  Se30  1  0.26920700  0.14247000  0.42925600  1
  Se  Se31  1  0.85753000  0.73079300  0.07074400  1
