# generated using pymatgen
data_K3Dy(AsS4)2
_symmetry_space_group_name_H-M   'P 1'
_cell_length_a   10.85671298
_cell_length_b   10.85671298
_cell_length_c   9.02191379
_cell_angle_alpha   76.94026338
_cell_angle_beta   76.94026338
_cell_angle_gamma   121.64059060
_symmetry_Int_Tables_number   1
_chemical_formula_structural   K3Dy(AsS4)2
_chemical_formula_sum   'K6 Dy2 As4 S16'
_cell_volume   802.22150245
_cell_formula_units_Z   2
loop_
 _symmetry_equiv_pos_site_id
 _symmetry_equiv_pos_as_xyz
  1  'x, y, z'
loop_
 _atom_site_type_symbol
 _atom_site_label
 _atom_site_symmetry_multiplicity
 _atom_site_fract_x
 _atom_site_fract_y
 _atom_site_fract_z
 _atom_site_occupancy
  K  K0  1  0.26157300  0.73842700  0.75000000  1
  K  K1  1  0.73842700  0.26157300  0.25000000  1
  K  K2  1  0.50000000  0.50000000  0.00000000  1
  K  K3  1  0.50000000  0.50000000  0.50000000  1
  K  K4  1  0.99554400  0.00445600  0.25000000  1
  K  K5  1  0.00445600  0.99554400  0.75000000  1
  Dy  Dy6  1  0.24341300  0.75658700  0.25000000  1
  Dy  Dy7  1  0.75658700  0.24341300  0.75000000  1
  As  As8  1  0.65686500  0.90264900  0.10053500  1
  As  As9  1  0.09735100  0.34313500  0.39946500  1
  As  As10  1  0.34313500  0.09735100  0.89946500  1
  As  As11  1  0.90264900  0.65686500  0.60053500  1
  S  S12  1  0.47162100  0.12451700  0.06097200  1
  S  S13  1  0.87548300  0.52837900  0.43902800  1
  S  S14  1  0.52837900  0.87548300  0.93902800  1
  S  S15  1  0.12451700  0.47162100  0.56097200  1
  S  S16  1  0.13521600  0.84422300  0.02411200  1
  S  S17  1  0.15577700  0.86478400  0.47588800  1
  S  S18  1  0.86478400  0.15577700  0.97588800  1
  S  S19  1  0.84422300  0.13521600  0.52411200  1
  S  S20  1  0.73683500  0.75766000  0.12587900  1
  S  S21  1  0.24234000  0.26316500  0.37412100  1
  S  S22  1  0.26316500  0.24234000  0.87412100  1
  S  S23  1  0.75766000  0.73683500  0.62587900  1
  S  S24  1  0.14691600  0.50066200  0.15591600  1
  S  S25  1  0.49933800  0.85308400  0.34408400  1
  S  S26  1  0.85308400  0.49933800  0.84408400  1
  S  S27  1  0.50066200  0.14691600  0.65591600  1
