# generated using pymatgen
data_KNpCuS3
_symmetry_space_group_name_H-M   'P 1'
_cell_length_a   7.25251361
_cell_length_b   7.25251361
_cell_length_c   10.19044200
_cell_angle_alpha   90.00000000
_cell_angle_beta   90.00000000
_cell_angle_gamma   148.18979697
_symmetry_Int_Tables_number   1
_chemical_formula_structural   KNpCuS3
_chemical_formula_sum   'K2 Np2 Cu2 S6'
_cell_volume   282.53289519
_cell_formula_units_Z   2
loop_
 _symmetry_equiv_pos_site_id
 _symmetry_equiv_pos_as_xyz
  1  'x, y, z'
loop_
 _atom_site_type_symbol
 _atom_site_label
 _atom_site_symmetry_multiplicity
 _atom_site_fract_x
 _atom_site_fract_y
 _atom_site_fract_z
 _atom_site_occupancy
  K  K0  1  0.74298700  0.25701300  0.25000000  1
  K  K1  1  0.25701300  0.74298700  0.75000000  1
  Np  Np2  1  0.00000000  0.00000000  0.50000000  1
  Np  Np3  1  0.00000000  0.00000000  0.00000000  1
  Cu  Cu4  1  0.46579400  0.53420600  0.25000000  1
  Cu  Cu5  1  0.53420600  0.46579400  0.75000000  1
  S  S6  1  0.37644900  0.62355100  0.43931300  1
  S  S7  1  0.06097900  0.93902100  0.25000000  1
  S  S8  1  0.37644900  0.62355100  0.06068700  1
  S  S9  1  0.62355100  0.37644900  0.93931300  1
  S  S10  1  0.93902100  0.06097900  0.75000000  1
  S  S11  1  0.62355100  0.37644900  0.56068700  1
