# generated using pymatgen
data_Yb4MgPd
_symmetry_space_group_name_H-M   'P 1'
_cell_length_a   10.12595437
_cell_length_b   10.12595437
_cell_length_c   10.12595437
_cell_angle_alpha   60.00000000
_cell_angle_beta   60.00000000
_cell_angle_gamma   60.00000000
_symmetry_Int_Tables_number   1
_chemical_formula_structural   Yb4MgPd
_chemical_formula_sum   'Yb16 Mg4 Pd4'
_cell_volume   734.16368750
_cell_formula_units_Z   4
loop_
 _symmetry_equiv_pos_site_id
 _symmetry_equiv_pos_as_xyz
  1  'x, y, z'
loop_
 _atom_site_type_symbol
 _atom_site_label
 _atom_site_symmetry_multiplicity
 _atom_site_fract_x
 _atom_site_fract_y
 _atom_site_fract_z
 _atom_site_occupancy
  Yb  Yb0  1  0.69433500  0.69433500  0.30566500  1
  Yb  Yb1  1  0.30566500  0.69433500  0.30566500  1
  Yb  Yb2  1  0.69433500  0.30566500  0.30566500  1
  Yb  Yb3  1  0.30566500  0.30566500  0.69433500  1
  Yb  Yb4  1  0.69433500  0.30566500  0.69433500  1
  Yb  Yb5  1  0.30566500  0.69433500  0.69433500  1
  Yb  Yb6  1  0.05835000  0.05835000  0.44165000  1
  Yb  Yb7  1  0.44165000  0.05835000  0.44165000  1
  Yb  Yb8  1  0.05835000  0.44165000  0.44165000  1
  Yb  Yb9  1  0.44165000  0.44165000  0.05835000  1
  Yb  Yb10  1  0.05835000  0.44165000  0.05835000  1
  Yb  Yb11  1  0.44165000  0.05835000  0.05835000  1
  Yb  Yb12  1  0.90645300  0.90645300  0.28064200  1
  Yb  Yb13  1  0.90645300  0.28064200  0.90645300  1
  Yb  Yb14  1  0.28064200  0.90645300  0.90645300  1
  Yb  Yb15  1  0.90645300  0.90645300  0.90645300  1
  Mg  Mg16  1  0.67179000  0.67179000  0.98463000  1
  Mg  Mg17  1  0.67179000  0.98463000  0.67179000  1
  Mg  Mg18  1  0.98463000  0.67179000  0.67179000  1
  Mg  Mg19  1  0.67179000  0.67179000  0.67179000  1
  Pd  Pd20  1  0.11020600  0.11020600  0.66938200  1
  Pd  Pd21  1  0.11020600  0.66938200  0.11020600  1
  Pd  Pd22  1  0.66938200  0.11020600  0.11020600  1
  Pd  Pd23  1  0.11020600  0.11020600  0.11020600  1
