# generated using pymatgen
data_Cd2PbO4
_symmetry_space_group_name_H-M   'P 1'
_cell_length_a   3.36526400
_cell_length_b   5.75198600
_cell_length_c   10.17753700
_cell_angle_alpha   90.00000000
_cell_angle_beta   90.00000000
_cell_angle_gamma   90.00000000
_symmetry_Int_Tables_number   1
_chemical_formula_structural   Cd2PbO4
_chemical_formula_sum   'Cd4 Pb2 O8'
_cell_volume   197.00608923
_cell_formula_units_Z   2
loop_
 _symmetry_equiv_pos_site_id
 _symmetry_equiv_pos_as_xyz
  1  'x, y, z'
loop_
 _atom_site_type_symbol
 _atom_site_label
 _atom_site_symmetry_multiplicity
 _atom_site_fract_x
 _atom_site_fract_y
 _atom_site_fract_z
 _atom_site_occupancy
  Cd  Cd0  1  0.50000000  0.56013700  0.32282900  1
  Cd  Cd1  1  0.50000000  0.93986300  0.82282900  1
  Cd  Cd2  1  0.50000000  0.06013700  0.17717100  1
  Cd  Cd3  1  0.50000000  0.43986300  0.67717100  1
  Pb  Pb4  1  0.00000000  0.50000000  0.00000000  1
  Pb  Pb5  1  0.00000000  0.00000000  0.50000000  1
  O  O6  1  0.00000000  0.64647000  0.80127000  1
  O  O7  1  0.50000000  0.74693400  0.03850100  1
  O  O8  1  0.50000000  0.75306600  0.53850100  1
  O  O9  1  0.00000000  0.85353000  0.30127000  1
  O  O10  1  0.00000000  0.14647000  0.69873000  1
  O  O11  1  0.50000000  0.24693400  0.46149900  1
  O  O12  1  0.50000000  0.25306600  0.96149900  1
  O  O13  1  0.00000000  0.35353000  0.19873000  1
