# generated using pymatgen
data_TaInO4
_symmetry_space_group_name_H-M   'P 1'
_cell_length_a   5.88188700
_cell_length_b   4.88890200
_cell_length_c   5.22774714
_cell_angle_alpha   88.67816914
_cell_angle_beta   90.00000000
_cell_angle_gamma   90.00000000
_symmetry_Int_Tables_number   1
_chemical_formula_structural   TaInO4
_chemical_formula_sum   'Ta2 In2 O8'
_cell_volume   150.28893174
_cell_formula_units_Z   2
loop_
 _symmetry_equiv_pos_site_id
 _symmetry_equiv_pos_as_xyz
  1  'x, y, z'
loop_
 _atom_site_type_symbol
 _atom_site_label
 _atom_site_symmetry_multiplicity
 _atom_site_fract_x
 _atom_site_fract_y
 _atom_site_fract_z
 _atom_site_occupancy
  Ta  Ta0  1  0.82903900  0.00000000  0.25000000  1
  Ta  Ta1  1  0.17096100  0.00000000  0.75000000  1
  In  In2  1  0.32441100  0.50000000  0.25000000  1
  In  In3  1  0.67558900  0.50000000  0.75000000  1
  O  O4  1  0.62234700  0.74068200  0.39979200  1
  O  O5  1  0.62234700  0.25931800  0.10020800  1
  O  O6  1  0.37765300  0.25931800  0.60020800  1
  O  O7  1  0.37765300  0.74068200  0.89979200  1
  O  O8  1  0.10360200  0.78688000  0.43608800  1
  O  O9  1  0.10360200  0.21312000  0.06391200  1
  O  O10  1  0.89639800  0.21312000  0.56391200  1
  O  O11  1  0.89639800  0.78688000  0.93608800  1
