# generated using pymatgen
data_Yb2TeO6
_symmetry_space_group_name_H-M   'P 1'
_cell_length_a   9.32937187
_cell_length_b   9.32937187
_cell_length_c   5.25744600
_cell_angle_alpha   90.00000000
_cell_angle_beta   90.00000000
_cell_angle_gamma   119.99999906
_symmetry_Int_Tables_number   1
_chemical_formula_structural   Yb2TeO6
_chemical_formula_sum   'Yb6 Te3 O18'
_cell_volume   396.28740094
_cell_formula_units_Z   3
loop_
 _symmetry_equiv_pos_site_id
 _symmetry_equiv_pos_as_xyz
  1  'x, y, z'
loop_
 _atom_site_type_symbol
 _atom_site_label
 _atom_site_symmetry_multiplicity
 _atom_site_fract_x
 _atom_site_fract_y
 _atom_site_fract_z
 _atom_site_occupancy
  Yb  Yb0  1  0.71598300  0.71598300  0.50000000  1
  Yb  Yb1  1  0.00000000  0.28401700  0.50000000  1
  Yb  Yb2  1  0.28401700  0.00000000  0.50000000  1
  Yb  Yb3  1  0.37036600  0.37036600  0.00000000  1
  Yb  Yb4  1  0.00000000  0.62963400  0.00000000  1
  Yb  Yb5  1  0.62963400  0.00000000  0.00000000  1
  Te  Te6  1  0.66666700  0.33333300  0.50856700  1
  Te  Te7  1  0.33333300  0.66666700  0.49143300  1
  Te  Te8  1  0.00000000  0.00000000  0.00000000  1
  O  O9  1  0.75159100  0.21968500  0.71009300  1
  O  O10  1  0.78031500  0.53190600  0.71009300  1
  O  O11  1  0.46809400  0.24840900  0.71009300  1
  O  O12  1  0.53190600  0.78031500  0.28990700  1
  O  O13  1  0.24840900  0.46809400  0.28990700  1
  O  O14  1  0.21968500  0.75159100  0.28990700  1
  O  O15  1  0.58244400  0.44574600  0.29732000  1
  O  O16  1  0.55425400  0.13669800  0.29732000  1
  O  O17  1  0.86330200  0.41755600  0.29732000  1
  O  O18  1  0.08302800  0.88602100  0.79337700  1
  O  O19  1  0.11397900  0.19700700  0.79337700  1
  O  O20  1  0.80299300  0.91697200  0.79337700  1
  O  O21  1  0.19700700  0.11397900  0.20662300  1
  O  O22  1  0.91697200  0.80299300  0.20662300  1
  O  O23  1  0.88602100  0.08302800  0.20662300  1
  O  O24  1  0.44574600  0.58244400  0.70268000  1
  O  O25  1  0.41755600  0.86330200  0.70268000  1
  O  O26  1  0.13669800  0.55425400  0.70268000  1
