# generated using pymatgen
data_TmI3
_symmetry_space_group_name_H-M   'P 1'
_cell_length_a   11.69130017
_cell_length_b   11.69130017
_cell_length_c   3.95198800
_cell_angle_alpha   90.00000000
_cell_angle_beta   90.00000000
_cell_angle_gamma   120.00000096
_symmetry_Int_Tables_number   1
_chemical_formula_structural   TmI3
_chemical_formula_sum   'Tm2 I6'
_cell_volume   467.81254816
_cell_formula_units_Z   2
loop_
 _symmetry_equiv_pos_site_id
 _symmetry_equiv_pos_as_xyz
  1  'x, y, z'
loop_
 _atom_site_type_symbol
 _atom_site_label
 _atom_site_symmetry_multiplicity
 _atom_site_fract_x
 _atom_site_fract_y
 _atom_site_fract_z
 _atom_site_occupancy
  Tm  Tm0  1  0.33333300  0.66666700  0.75000000  1
  Tm  Tm1  1  0.66666700  0.33333300  0.25000000  1
  I  I2  1  0.21999100  0.43998300  0.25000000  1
  I  I3  1  0.56001700  0.78000900  0.25000000  1
  I  I4  1  0.21999100  0.78000900  0.25000000  1
  I  I5  1  0.78000900  0.56001700  0.75000000  1
  I  I6  1  0.43998300  0.21999100  0.75000000  1
  I  I7  1  0.78000900  0.21999100  0.75000000  1
