# generated using pymatgen
data_MnGaRu2
_symmetry_space_group_name_H-M   'P 1'
_cell_length_a   4.25185449
_cell_length_b   4.25194852
_cell_length_c   4.25313167
_cell_angle_alpha   60.02236639
_cell_angle_beta   60.03263742
_cell_angle_gamma   60.03322231
_symmetry_Int_Tables_number   1
_chemical_formula_structural   MnGaRu2
_chemical_formula_sum   'Mn1 Ga1 Ru2'
_cell_volume   54.40635550
_cell_formula_units_Z   1
loop_
 _symmetry_equiv_pos_site_id
 _symmetry_equiv_pos_as_xyz
  1  'x, y, z'
loop_
 _atom_site_type_symbol
 _atom_site_label
 _atom_site_symmetry_multiplicity
 _atom_site_fract_x
 _atom_site_fract_y
 _atom_site_fract_z
 _atom_site_occupancy
  Mn  Mn0  1  0.74998200  0.75007000  0.74995800  1
  Ga  Ga1  1  0.25003600  0.24993900  0.25000700  1
  Ru  Ru2  1  0.99997300  0.99997600  0.99992600  1
  Ru  Ru3  1  0.50001100  0.50001500  0.50011000  1
