# generated using pymatgen
data_K2SrCdSb2
_symmetry_space_group_name_H-M   'P 1'
_cell_length_a   4.99711900
_cell_length_b   8.32600600
_cell_length_c   9.97313900
_cell_angle_alpha   90.00000000
_cell_angle_beta   90.00000000
_cell_angle_gamma   90.00000000
_symmetry_Int_Tables_number   1
_chemical_formula_structural   K2SrCdSb2
_chemical_formula_sum   'K4 Sr2 Cd2 Sb4'
_cell_volume   414.94284785
_cell_formula_units_Z   2
loop_
 _symmetry_equiv_pos_site_id
 _symmetry_equiv_pos_as_xyz
  1  'x, y, z'
loop_
 _atom_site_type_symbol
 _atom_site_label
 _atom_site_symmetry_multiplicity
 _atom_site_fract_x
 _atom_site_fract_y
 _atom_site_fract_z
 _atom_site_occupancy
  K  K0  1  0.50000000  0.02486700  0.42226900  1
  K  K1  1  0.00000000  0.34092000  0.33757000  1
  K  K2  1  0.50000000  0.52486700  0.57773100  1
  K  K3  1  0.00000000  0.84092000  0.66243000  1
  Sr  Sr4  1  0.00000000  0.49606900  0.95409700  1
  Sr  Sr5  1  0.00000000  0.99606900  0.04590300  1
  Cd  Cd6  1  0.50000000  0.15180400  0.82443300  1
  Cd  Cd7  1  0.50000000  0.65180400  0.17556700  1
  Sb  Sb8  1  0.00000000  0.24943700  0.68490200  1
  Sb  Sb9  1  0.50000000  0.28242300  0.10957100  1
  Sb  Sb10  1  0.00000000  0.74943700  0.31509800  1
  Sb  Sb11  1  0.50000000  0.78242300  0.89042900  1
