# generated using pymatgen
data_SmAsPd
_symmetry_space_group_name_H-M   'P 1'
_cell_length_a   4.37524807
_cell_length_b   4.37524807
_cell_length_c   7.65491500
_cell_angle_alpha   90.00000000
_cell_angle_beta   90.00000000
_cell_angle_gamma   120.00000110
_symmetry_Int_Tables_number   1
_chemical_formula_structural   SmAsPd
_chemical_formula_sum   'Sm2 As2 Pd2'
_cell_volume   126.90430760
_cell_formula_units_Z   2
loop_
 _symmetry_equiv_pos_site_id
 _symmetry_equiv_pos_as_xyz
  1  'x, y, z'
loop_
 _atom_site_type_symbol
 _atom_site_label
 _atom_site_symmetry_multiplicity
 _atom_site_fract_x
 _atom_site_fract_y
 _atom_site_fract_z
 _atom_site_occupancy
  Sm  Sm0  1  0.00000000  0.00000000  0.49971700  1
  Sm  Sm1  1  0.00000000  0.00000000  0.99971700  1
  As  As2  1  0.66666700  0.33333300  0.26937000  1
  As  As3  1  0.33333300  0.66666700  0.76937000  1
  Pd  Pd4  1  0.33333300  0.66666700  0.23031200  1
  Pd  Pd5  1  0.66666700  0.33333300  0.73031200  1
