# generated using pymatgen
data_Tc2As3
_symmetry_space_group_name_H-M   'P 1'
_cell_length_a   6.66784000
_cell_length_b   6.69945282
_cell_length_c   8.06568567
_cell_angle_alpha   95.70182793
_cell_angle_beta   101.62995640
_cell_angle_gamma   104.46533912
_symmetry_Int_Tables_number   1
_chemical_formula_structural   Tc2As3
_chemical_formula_sum   'Tc8 As12'
_cell_volume   337.43279947
_cell_formula_units_Z   4
loop_
 _symmetry_equiv_pos_site_id
 _symmetry_equiv_pos_as_xyz
  1  'x, y, z'
loop_
 _atom_site_type_symbol
 _atom_site_label
 _atom_site_symmetry_multiplicity
 _atom_site_fract_x
 _atom_site_fract_y
 _atom_site_fract_z
 _atom_site_occupancy
  Tc  Tc0  1  0.91535500  0.42603800  0.14193700  1
  Tc  Tc1  1  0.08464500  0.57396200  0.85806300  1
  Tc  Tc2  1  0.36837500  0.42864600  0.13288300  1
  Tc  Tc3  1  0.63162500  0.57135400  0.86711700  1
  Tc  Tc4  1  0.53117000  0.86429900  0.36468300  1
  Tc  Tc5  1  0.46883000  0.13570100  0.63531700  1
  Tc  Tc6  1  0.08881800  0.87591400  0.37513800  1
  Tc  Tc7  1  0.91118200  0.12408600  0.62486200  1
  As  As8  1  0.73629900  0.59212500  0.34694200  1
  As  As9  1  0.26370100  0.40787500  0.65305800  1
  As  As10  1  0.23577000  0.56594300  0.38546100  1
  As  As11  1  0.76423000  0.43405700  0.61453900  1
  As  As12  1  0.85940200  0.12905300  0.31401500  1
  As  As13  1  0.14059800  0.87094700  0.68598500  1
  As  As14  1  0.37211300  0.15511300  0.32044200  1
  As  As15  1  0.62788700  0.84488700  0.67955800  1
  As  As16  1  0.54512800  0.20605300  0.96375600  1
  As  As17  1  0.45487200  0.79394700  0.03624400  1
  As  As18  1  0.03267800  0.19008400  0.95027800  1
  As  As19  1  0.96732200  0.80991600  0.04972200  1
