# generated using pymatgen
data_AcAu3
_symmetry_space_group_name_H-M   'P 1'
_cell_length_a   6.91530269
_cell_length_b   6.91530269
_cell_length_c   4.76804500
_cell_angle_alpha   90.00000000
_cell_angle_beta   90.00000000
_cell_angle_gamma   120.00000657
_symmetry_Int_Tables_number   1
_chemical_formula_structural   AcAu3
_chemical_formula_sum   'Ac2 Au6'
_cell_volume   197.46645830
_cell_formula_units_Z   2
loop_
 _symmetry_equiv_pos_site_id
 _symmetry_equiv_pos_as_xyz
  1  'x, y, z'
loop_
 _atom_site_type_symbol
 _atom_site_label
 _atom_site_symmetry_multiplicity
 _atom_site_fract_x
 _atom_site_fract_y
 _atom_site_fract_z
 _atom_site_occupancy
  Ac  Ac0  1  0.33333300  0.66666700  0.75000000  1
  Ac  Ac1  1  0.66666700  0.33333300  0.25000000  1
  Au  Au2  1  0.14704900  0.29409800  0.25000000  1
  Au  Au3  1  0.70590200  0.85295100  0.25000000  1
  Au  Au4  1  0.14704900  0.85295100  0.25000000  1
  Au  Au5  1  0.85295100  0.70590200  0.75000000  1
  Au  Au6  1  0.29409800  0.14704900  0.75000000  1
  Au  Au7  1  0.85295100  0.14704900  0.75000000  1
