# generated using pymatgen
data_MnPSe3
_symmetry_space_group_name_H-M   'P 1'
_cell_length_a   8.36236210
_cell_length_b   8.36236210
_cell_length_c   8.36236261
_cell_angle_alpha   45.08955282
_cell_angle_beta   45.08955282
_cell_angle_gamma   45.08955064
_symmetry_Int_Tables_number   1
_chemical_formula_structural   MnPSe3
_chemical_formula_sum   'Mn2 P2 Se6'
_cell_volume   267.00658716
_cell_formula_units_Z   2
loop_
 _symmetry_equiv_pos_site_id
 _symmetry_equiv_pos_as_xyz
  1  'x, y, z'
loop_
 _atom_site_type_symbol
 _atom_site_label
 _atom_site_symmetry_multiplicity
 _atom_site_fract_x
 _atom_site_fract_y
 _atom_site_fract_z
 _atom_site_occupancy
  Mn  Mn0  1  0.16696600  0.16696600  0.16696600  1
  Mn  Mn1  1  0.83303400  0.83303400  0.83303400  1
  P  P2  1  0.45023800  0.45023800  0.45023800  1
  P  P3  1  0.54976200  0.54976200  0.54976200  1
  Se  Se4  1  0.57689900  0.24161100  0.90942400  1
  Se  Se5  1  0.90942400  0.57689900  0.24161100  1
  Se  Se6  1  0.24161100  0.90942400  0.57689900  1
  Se  Se7  1  0.42310100  0.75838900  0.09057600  1
  Se  Se8  1  0.09057600  0.42310100  0.75838900  1
  Se  Se9  1  0.75838900  0.09057600  0.42310100  1
