# generated using pymatgen
data_Dy2Ge5Rh3
_symmetry_space_group_name_H-M   'P 1'
_cell_length_a   8.37767350
_cell_length_b   8.37767350
_cell_length_c   5.90790227
_cell_angle_alpha   71.11671307
_cell_angle_beta   71.11671307
_cell_angle_gamma   94.12661838
_symmetry_Int_Tables_number   1
_chemical_formula_structural   Dy2Ge5Rh3
_chemical_formula_sum   'Dy4 Ge10 Rh6'
_cell_volume   363.91386906
_cell_formula_units_Z   2
loop_
 _symmetry_equiv_pos_site_id
 _symmetry_equiv_pos_as_xyz
  1  'x, y, z'
loop_
 _atom_site_type_symbol
 _atom_site_label
 _atom_site_symmetry_multiplicity
 _atom_site_fract_x
 _atom_site_fract_y
 _atom_site_fract_z
 _atom_site_occupancy
  Dy  Dy0  1  0.59201700  0.86989800  0.76309600  1
  Dy  Dy1  1  0.13010200  0.40798300  0.73690400  1
  Dy  Dy2  1  0.40798300  0.13010200  0.23690400  1
  Dy  Dy3  1  0.86989800  0.59201700  0.26309600  1
  Ge  Ge4  1  0.48742300  0.51257700  0.75000000  1
  Ge  Ge5  1  0.51257700  0.48742300  0.25000000  1
  Ge  Ge6  1  0.79305300  0.20694700  0.75000000  1
  Ge  Ge7  1  0.20694700  0.79305300  0.25000000  1
  Ge  Ge8  1  0.26503600  0.07512400  0.83109900  1
  Ge  Ge9  1  0.92487600  0.73496400  0.66890100  1
  Ge  Ge10  1  0.73496400  0.92487600  0.16890100  1
  Ge  Ge11  1  0.07512400  0.26503600  0.33109900  1
  Ge  Ge12  1  0.22172600  0.77827400  0.75000000  1
  Ge  Ge13  1  0.77827400  0.22172600  0.25000000  1
  Rh  Rh14  1  0.54569900  0.26127200  0.62459300  1
  Rh  Rh15  1  0.73872800  0.45430100  0.87540700  1
  Rh  Rh16  1  0.45430100  0.73872800  0.37540700  1
  Rh  Rh17  1  0.26127200  0.54569900  0.12459300  1
  Rh  Rh18  1  0.99872800  0.00127200  0.75000000  1
  Rh  Rh19  1  0.00127200  0.99872800  0.25000000  1
