# generated using pymatgen
data_Li16Mn15Fe(PO4)16
_symmetry_space_group_name_H-M   'P 1'
_cell_length_a   24.66398100
_cell_length_b   4.78781100
_cell_length_c   10.56261670
_cell_angle_alpha   89.97917033
_cell_angle_beta   90.00000000
_cell_angle_gamma   90.00000000
_symmetry_Int_Tables_number   1
_chemical_formula_structural   Li16Mn15Fe(PO4)16
_chemical_formula_sum   'Li16 Mn15 Fe1 P16 O64'
_cell_volume   1247.30213813
_cell_formula_units_Z   1
loop_
 _symmetry_equiv_pos_site_id
 _symmetry_equiv_pos_as_xyz
  1  'x, y, z'
loop_
 _atom_site_type_symbol
 _atom_site_label
 _atom_site_symmetry_multiplicity
 _atom_site_fract_x
 _atom_site_fract_y
 _atom_site_fract_z
 _atom_site_occupancy
  Li  Li0  1  0.31252100  0.99998000  0.00001400  1
  Li  Li1  1  0.18751300  0.00001400  0.99998700  1
  Li  Li2  1  0.06250800  0.99999500  0.99999800  1
  Li  Li3  1  0.93749200  0.99999500  0.99999800  1
  Li  Li4  1  0.81248700  0.00001400  0.99998700  1
  Li  Li5  1  0.68747900  0.99998000  0.00001400  1
  Li  Li6  1  0.56241500  0.00034000  0.99969300  1
  Li  Li7  1  0.43758500  0.00034000  0.99969300  1
  Li  Li8  1  0.18750900  0.49999200  0.49998600  1
  Li  Li9  1  0.31259300  0.49988300  0.50008300  1
  Li  Li10  1  0.93749400  0.50000700  0.50000500  1
  Li  Li11  1  0.06250600  0.50000700  0.50000500  1
  Li  Li12  1  0.68740700  0.49988300  0.50008300  1
  Li  Li13  1  0.43769300  0.50044200  0.50021800  1
  Li  Li14  1  0.56230700  0.50044200  0.50021800  1
  Li  Li15  1  0.81249100  0.49999200  0.49998600  1
  Mn  Mn16  1  0.12500300  0.97238400  0.28114500  1
  Mn  Mn17  1  0.87499700  0.97238400  0.28114500  1
  Mn  Mn18  1  0.62489500  0.97236900  0.28126300  1
  Mn  Mn19  1  0.37510500  0.97236900  0.28126300  1
  Mn  Mn20  1  0.87499300  0.52762100  0.78112900  1
  Mn  Mn21  1  0.62472500  0.52763300  0.78098800  1
  Mn  Mn22  1  0.12500700  0.52762100  0.78112900  1
  Mn  Mn23  1  0.37527500  0.52763300  0.78098800  1
  Mn  Mn24  1  0.25000900  0.47239900  0.21886200  1
  Mn  Mn25  1  0.74999100  0.47239900  0.21886200  1
  Mn  Mn26  1  0.00000000  0.47248900  0.21885600  1
  Mn  Mn27  1  0.50000000  0.47263000  0.21907300  1
  Mn  Mn28  1  0.25011100  0.02769600  0.71883500  1
  Mn  Mn29  1  0.74988900  0.02769600  0.71883500  1
  Mn  Mn30  1  0.00000000  0.02759400  0.71884400  1
  Fe  Fe31  1  0.50000000  0.02590900  0.71940600  1
  P  P32  1  0.25001100  0.90930200  0.40806200  1
  P  P33  1  0.00000000  0.90930200  0.40807800  1
  P  P34  1  0.74998900  0.90930200  0.40806200  1
  P  P35  1  0.50000000  0.91030700  0.40870200  1
  P  P36  1  0.25000600  0.59075100  0.90809100  1
  P  P37  1  0.00000000  0.59068800  0.90806200  1
  P  P38  1  0.50000000  0.59133700  0.90674700  1
  P  P39  1  0.74999400  0.59075100  0.90809100  1
  P  P40  1  0.87500300  0.40931300  0.09190800  1
  P  P41  1  0.12499700  0.40931300  0.09190800  1
  P  P42  1  0.62498500  0.40942000  0.09197800  1
  P  P43  1  0.37501500  0.40942000  0.09197800  1
  P  P44  1  0.12500000  0.09070100  0.59192700  1
  P  P45  1  0.62449400  0.08975000  0.59212600  1
  P  P46  1  0.87500000  0.09070100  0.59192700  1
  P  P47  1  0.37550600  0.08975000  0.59212600  1
  O  O48  1  0.24999600  0.78756700  0.54477000  1
  O  O49  1  0.00000000  0.78750000  0.54472400  1
  O  O50  1  0.75000400  0.78756700  0.54477000  1
  O  O51  1  0.50000000  0.79020700  0.54587400  1
  O  O52  1  0.30018900  0.77664100  0.33884400  1
  O  O53  1  0.19981600  0.77651200  0.33885600  1
  O  O54  1  0.05018800  0.77650500  0.33884300  1
  O  O55  1  0.94981200  0.77650500  0.33884300  1
  O  O56  1  0.80018400  0.77651200  0.33885600  1
  O  O57  1  0.69981100  0.77664100  0.33884400  1
  O  O58  1  0.55010800  0.77658900  0.33934700  1
  O  O59  1  0.44989200  0.77658900  0.33934700  1
  O  O60  1  0.37498100  0.76844300  0.59585200  1
  O  O61  1  0.12499000  0.76943700  0.59597100  1
  O  O62  1  0.87501000  0.76943700  0.59597100  1
  O  O63  1  0.62501900  0.76844300  0.59585200  1
  O  O64  1  0.12499100  0.73058400  0.09593100  1
  O  O65  1  0.62500900  0.73062500  0.09597100  1
  O  O66  1  0.37499100  0.73062500  0.09597100  1
  O  O67  1  0.87500900  0.73058400  0.09593100  1
  O  O68  1  0.30020800  0.72343900  0.83875800  1
  O  O69  1  0.19981300  0.72354200  0.83881400  1
  O  O70  1  0.80018700  0.72354200  0.83881400  1
  O  O71  1  0.94980900  0.72351800  0.83881100  1
  O  O72  1  0.05019100  0.72351800  0.83881100  1
  O  O73  1  0.69979200  0.72343900  0.83875800  1
  O  O74  1  0.55005700  0.72693900  0.83755900  1
  O  O75  1  0.44994300  0.72693900  0.83755900  1
  O  O76  1  0.24999100  0.71243600  0.04466100  1
  O  O77  1  0.00000000  0.71242400  0.04467600  1
  O  O78  1  0.50000000  0.71097500  0.04378000  1
  O  O79  1  0.75000900  0.71243600  0.04466100  1
  O  O80  1  0.12498900  0.28755000  0.95530700  1
  O  O81  1  0.87501100  0.28755000  0.95530700  1
  O  O82  1  0.62497500  0.28796100  0.95519900  1
  O  O83  1  0.37502500  0.28796100  0.95519900  1
  O  O84  1  0.17517800  0.27652400  0.16118100  1
  O  O85  1  0.07480000  0.27653900  0.16117300  1
  O  O86  1  0.92520000  0.27653900  0.16117300  1
  O  O87  1  0.67519000  0.27646700  0.16115300  1
  O  O88  1  0.57483400  0.27649000  0.16118600  1
  O  O89  1  0.42516600  0.27649000  0.16118600  1
  O  O90  1  0.32481000  0.27646700  0.16115300  1
  O  O91  1  0.82482200  0.27652400  0.16118100  1
  O  O92  1  0.24998600  0.26942400  0.90401300  1
  O  O93  1  0.00000000  0.26945000  0.90402100  1
  O  O94  1  0.75001400  0.26942400  0.90401300  1
  O  O95  1  0.50000000  0.26978800  0.90292100  1
  O  O96  1  0.24999600  0.23056800  0.40408400  1
  O  O97  1  0.75000400  0.23056800  0.40408400  1
  O  O98  1  0.00000000  0.23053700  0.40402900  1
  O  O99  1  0.50000000  0.23133800  0.40370500  1
  O  O100  1  0.17519900  0.22342300  0.66118700  1
  O  O101  1  0.07481000  0.22345400  0.66118100  1
  O  O102  1  0.92519000  0.22345400  0.66118100  1
  O  O103  1  0.32543200  0.22360500  0.66155100  1
  O  O104  1  0.57379600  0.21883100  0.66162900  1
  O  O105  1  0.67456800  0.22360500  0.66155100  1
  O  O106  1  0.42620400  0.21883100  0.66162900  1
  O  O107  1  0.82480100  0.22342300  0.66118700  1
  O  O108  1  0.12499300  0.21252800  0.45531000  1
  O  O109  1  0.87500700  0.21252800  0.45531000  1
  O  O110  1  0.62473500  0.21263000  0.45581000  1
  O  O111  1  0.37526500  0.21263000  0.45581000  1
