# generated using pymatgen
data_K2VAgS4
_symmetry_space_group_name_H-M   'P 1'
_cell_length_a   13.15045375
_cell_length_b   11.72828098
_cell_length_c   7.23697225
_cell_angle_alpha   84.25524610
_cell_angle_beta   62.54516490
_cell_angle_gamma   33.19958900
_symmetry_Int_Tables_number   1
_chemical_formula_structural   K2VAgS4
_chemical_formula_sum   'K4 V2 Ag2 S8'
_cell_volume   438.68088028
_cell_formula_units_Z   2
loop_
 _symmetry_equiv_pos_site_id
 _symmetry_equiv_pos_as_xyz
  1  'x, y, z'
loop_
 _atom_site_type_symbol
 _atom_site_label
 _atom_site_symmetry_multiplicity
 _atom_site_fract_x
 _atom_site_fract_y
 _atom_site_fract_z
 _atom_site_occupancy
  K  K0  1  0.06986600  0.06986600  0.43013400  1
  K  K1  1  0.18013400  0.18013400  0.81986600  1
  K  K2  1  0.43013400  0.43013400  0.06986600  1
  K  K3  1  0.81986600  0.81986600  0.18013400  1
  V  V4  1  0.00000000  0.00000000  0.00000000  1
  V  V5  1  0.25000000  0.25000000  0.25000000  1
  Ag  Ag6  1  0.50000000  0.50000000  0.50000000  1
  Ag  Ag7  1  0.75000000  0.75000000  0.75000000  1
  S  S8  1  0.75482700  0.35836300  0.04659500  1
  S  S9  1  0.04659500  0.84021400  0.75482700  1
  S  S10  1  0.84021400  0.04659500  0.35836300  1
  S  S11  1  0.35836300  0.75482700  0.84021400  1
  S  S12  1  0.49517300  0.89163700  0.20340500  1
  S  S13  1  0.40978600  0.20340500  0.89163700  1
  S  S14  1  0.20340500  0.40978600  0.49517300  1
  S  S15  1  0.89163700  0.49517300  0.40978600  1
