# generated using pymatgen
data_Y3Al7Cu2
_symmetry_space_group_name_H-M   'P 1'
_cell_length_a   9.06665229
_cell_length_b   9.06665229
_cell_length_c   9.06665246
_cell_angle_alpha   35.32665758
_cell_angle_beta   35.32665758
_cell_angle_gamma   35.32665455
_symmetry_Int_Tables_number   1
_chemical_formula_structural   Y3Al7Cu2
_chemical_formula_sum   'Y3 Al7 Cu2'
_cell_volume   222.63317596
_cell_formula_units_Z   1
loop_
 _symmetry_equiv_pos_site_id
 _symmetry_equiv_pos_as_xyz
  1  'x, y, z'
loop_
 _atom_site_type_symbol
 _atom_site_label
 _atom_site_symmetry_multiplicity
 _atom_site_fract_x
 _atom_site_fract_y
 _atom_site_fract_z
 _atom_site_occupancy
  Y  Y0  1  0.00000000  0.00000000  0.00000000  1
  Y  Y1  1  0.85813700  0.85813700  0.85813700  1
  Y  Y2  1  0.14186300  0.14186300  0.14186300  1
  Al  Al3  1  0.41835900  0.41835900  0.92732500  1
  Al  Al4  1  0.92732500  0.41835900  0.41835900  1
  Al  Al5  1  0.41835900  0.92732500  0.41835900  1
  Al  Al6  1  0.50000000  0.50000000  0.50000000  1
  Al  Al7  1  0.58164100  0.07267500  0.58164100  1
  Al  Al8  1  0.07267500  0.58164100  0.58164100  1
  Al  Al9  1  0.58164100  0.58164100  0.07267500  1
  Cu  Cu10  1  0.66477700  0.66477700  0.66477700  1
  Cu  Cu11  1  0.33522300  0.33522300  0.33522300  1
