# generated using pymatgen
data_Ca3CrN3
_symmetry_space_group_name_H-M   'P 1'
_cell_length_a   6.64972071
_cell_length_b   6.64972071
_cell_length_c   5.06085300
_cell_angle_alpha   90.00000000
_cell_angle_beta   90.00000000
_cell_angle_gamma   101.23803183
_symmetry_Int_Tables_number   1
_chemical_formula_structural   Ca3CrN3
_chemical_formula_sum   'Ca6 Cr2 N6'
_cell_volume   219.49392637
_cell_formula_units_Z   2
loop_
 _symmetry_equiv_pos_site_id
 _symmetry_equiv_pos_as_xyz
  1  'x, y, z'
loop_
 _atom_site_type_symbol
 _atom_site_label
 _atom_site_symmetry_multiplicity
 _atom_site_fract_x
 _atom_site_fract_y
 _atom_site_fract_z
 _atom_site_occupancy
  Ca  Ca0  1  0.59556700  0.83049000  0.25000000  1
  Ca  Ca1  1  0.89322200  0.10677800  0.75000000  1
  Ca  Ca2  1  0.83049000  0.59556700  0.75000000  1
  Ca  Ca3  1  0.10677800  0.89322200  0.25000000  1
  Ca  Ca4  1  0.40443300  0.16951000  0.75000000  1
  Ca  Ca5  1  0.16951000  0.40443300  0.25000000  1
  Cr  Cr6  1  0.30420500  0.69579500  0.75000000  1
  Cr  Cr7  1  0.69579500  0.30420500  0.25000000  1
  N  N8  1  0.56568600  0.81801000  0.75000000  1
  N  N9  1  0.87302200  0.12697800  0.25000000  1
  N  N10  1  0.12697800  0.87302200  0.75000000  1
  N  N11  1  0.81801000  0.56568600  0.25000000  1
  N  N12  1  0.43431400  0.18199000  0.25000000  1
  N  N13  1  0.18199000  0.43431400  0.75000000  1
