# generated using pymatgen
data_K2Au3
_symmetry_space_group_name_H-M   'P 1'
_cell_length_a   6.32970528
_cell_length_b   6.32970528
_cell_length_c   6.32970528
_cell_angle_alpha   133.79173980
_cell_angle_beta   127.42829143
_cell_angle_gamma   72.55397996
_symmetry_Int_Tables_number   1
_chemical_formula_structural   K2Au3
_chemical_formula_sum   'K2 Au3'
_cell_volume   142.10985662
_cell_formula_units_Z   1
loop_
 _symmetry_equiv_pos_site_id
 _symmetry_equiv_pos_as_xyz
  1  'x, y, z'
loop_
 _atom_site_type_symbol
 _atom_site_label
 _atom_site_symmetry_multiplicity
 _atom_site_fract_x
 _atom_site_fract_y
 _atom_site_fract_z
 _atom_site_occupancy
  K  K0  1  0.69394800  0.69394800  0.00000000  1
  K  K1  1  0.30605200  0.30605200  0.00000000  1
  Au  Au2  1  0.00000000  0.50000000  0.50000000  1
  Au  Au3  1  0.25435900  0.00000000  0.25435900  1
  Au  Au4  1  0.74564100  0.00000000  0.74564100  1
