# generated using pymatgen
data_Nd2Ga12Ni
_symmetry_space_group_name_H-M   'P 1'
_cell_length_a   6.03810900
_cell_length_b   6.03810900
_cell_length_c   15.63967500
_cell_angle_alpha   90.00000000
_cell_angle_beta   90.00000000
_cell_angle_gamma   90.00000000
_symmetry_Int_Tables_number   1
_chemical_formula_structural   Nd2Ga12Ni
_chemical_formula_sum   'Nd4 Ga24 Ni2'
_cell_volume   570.20316193
_cell_formula_units_Z   2
loop_
 _symmetry_equiv_pos_site_id
 _symmetry_equiv_pos_as_xyz
  1  'x, y, z'
loop_
 _atom_site_type_symbol
 _atom_site_label
 _atom_site_symmetry_multiplicity
 _atom_site_fract_x
 _atom_site_fract_y
 _atom_site_fract_z
 _atom_site_occupancy
  Nd  Nd0  1  0.50000000  0.00000000  0.24606900  1
  Nd  Nd1  1  0.50000000  0.00000000  0.75393100  1
  Nd  Nd2  1  0.00000000  0.50000000  0.75393100  1
  Nd  Nd3  1  0.00000000  0.50000000  0.24606900  1
  Ga  Ga4  1  0.32953600  0.82953600  0.42907600  1
  Ga  Ga5  1  0.67046400  0.17046400  0.42907600  1
  Ga  Ga6  1  0.32953600  0.17046400  0.57092400  1
  Ga  Ga7  1  0.67046400  0.82953600  0.57092400  1
  Ga  Ga8  1  0.17046400  0.67046400  0.57092400  1
  Ga  Ga9  1  0.82953600  0.32953600  0.57092400  1
  Ga  Ga10  1  0.82953600  0.67046400  0.42907600  1
  Ga  Ga11  1  0.17046400  0.32953600  0.42907600  1
  Ga  Ga12  1  0.25035800  0.75035800  0.91599100  1
  Ga  Ga13  1  0.74964200  0.24964200  0.91599100  1
  Ga  Ga14  1  0.25035800  0.24964200  0.08400900  1
  Ga  Ga15  1  0.74964200  0.75035800  0.08400900  1
  Ga  Ga16  1  0.24964200  0.74964200  0.08400900  1
  Ga  Ga17  1  0.75035800  0.25035800  0.08400900  1
  Ga  Ga18  1  0.75035800  0.74964200  0.91599100  1
  Ga  Ga19  1  0.24964200  0.25035800  0.91599100  1
  Ga  Ga20  1  0.50000000  0.50000000  0.34090900  1
  Ga  Ga21  1  0.50000000  0.50000000  0.65909100  1
  Ga  Ga22  1  0.00000000  0.00000000  0.65909100  1
  Ga  Ga23  1  0.00000000  0.00000000  0.34090900  1
  Ga  Ga24  1  0.50000000  0.50000000  0.18372700  1
  Ga  Ga25  1  0.50000000  0.50000000  0.81627300  1
  Ga  Ga26  1  0.00000000  0.00000000  0.81627300  1
  Ga  Ga27  1  0.00000000  0.00000000  0.18372700  1
  Ni  Ni28  1  0.50000000  0.00000000  0.00000000  1
  Ni  Ni29  1  0.00000000  0.50000000  0.00000000  1
