# generated using pymatgen
data_Sr4As2O
_symmetry_space_group_name_H-M   'P 1'
_cell_length_a   8.92487298
_cell_length_b   8.92487298
_cell_length_c   8.92487298
_cell_angle_alpha   148.24408345
_cell_angle_beta   148.24408345
_cell_angle_gamma   45.52517822
_symmetry_Int_Tables_number   1
_chemical_formula_structural   Sr4As2O
_chemical_formula_sum   'Sr4 As2 O1'
_cell_volume   196.26805599
_cell_formula_units_Z   1
loop_
 _symmetry_equiv_pos_site_id
 _symmetry_equiv_pos_as_xyz
  1  'x, y, z'
loop_
 _atom_site_type_symbol
 _atom_site_label
 _atom_site_symmetry_multiplicity
 _atom_site_fract_x
 _atom_site_fract_y
 _atom_site_fract_z
 _atom_site_occupancy
  Sr  Sr0  1  0.67382400  0.67382400  0.00000000  1
  Sr  Sr1  1  0.32617600  0.32617600  0.00000000  1
  Sr  Sr2  1  0.50000000  0.00000000  0.50000000  1
  Sr  Sr3  1  0.00000000  0.50000000  0.50000000  1
  As  As4  1  0.86394100  0.86394100  0.00000000  1
  As  As5  1  0.13605900  0.13605900  0.00000000  1
  O  O6  1  0.50000000  0.50000000  0.00000000  1
