# generated using pymatgen
data_Tb2Ni12As7
_symmetry_space_group_name_H-M   'P 1'
_cell_length_a   9.35067827
_cell_length_b   9.35067827
_cell_length_c   3.85108400
_cell_angle_alpha   90.00000000
_cell_angle_beta   90.00000000
_cell_angle_gamma   120.00000190
_symmetry_Int_Tables_number   1
_chemical_formula_structural   Tb2Ni12As7
_chemical_formula_sum   'Tb2 Ni12 As7'
_cell_volume   291.60827486
_cell_formula_units_Z   1
loop_
 _symmetry_equiv_pos_site_id
 _symmetry_equiv_pos_as_xyz
  1  'x, y, z'
loop_
 _atom_site_type_symbol
 _atom_site_label
 _atom_site_symmetry_multiplicity
 _atom_site_fract_x
 _atom_site_fract_y
 _atom_site_fract_z
 _atom_site_occupancy
  Tb  Tb0  1  0.66666700  0.33333300  0.00000000  1
  Tb  Tb1  1  0.00000000  0.00000000  0.50000000  1
  Ni  Ni2  1  0.71038900  0.09145800  0.50000000  1
  Ni  Ni3  1  0.90854200  0.61893000  0.50000000  1
  Ni  Ni4  1  0.38107000  0.28961100  0.50000000  1
  Ni  Ni5  1  0.77341800  0.72266700  0.00000000  1
  Ni  Ni6  1  0.27733300  0.05075100  0.00000000  1
  Ni  Ni7  1  0.94924900  0.22658200  0.00000000  1
  Ni  Ni8  1  0.54471200  0.76251800  0.50000000  1
  Ni  Ni9  1  0.23748200  0.78219400  0.50000000  1
  Ni  Ni10  1  0.21780600  0.45528800  0.50000000  1
  Ni  Ni11  1  0.48396000  0.94617100  0.00000000  1
  Ni  Ni12  1  0.05382900  0.53778900  0.00000000  1
  Ni  Ni13  1  0.46221100  0.51604000  0.00000000  1
  As  As14  1  0.33333300  0.66666700  0.00000000  1
  As  As15  1  0.44194700  0.07320600  0.50000000  1
  As  As16  1  0.92679400  0.36874100  0.50000000  1
  As  As17  1  0.63125900  0.55805300  0.50000000  1
  As  As18  1  0.73579800  0.95145900  0.00000000  1
  As  As19  1  0.04854100  0.78433900  0.00000000  1
  As  As20  1  0.21566100  0.26420200  0.00000000  1
