# generated using pymatgen
data_Rb2MgP4(HO2)8
_symmetry_space_group_name_H-M   'P 1'
_cell_length_a   6.96375500
_cell_length_b   7.46523702
_cell_length_c   7.81979749
_cell_angle_alpha   81.27005373
_cell_angle_beta   70.29679867
_cell_angle_gamma   85.62637746
_symmetry_Int_Tables_number   1
_chemical_formula_structural   Rb2MgP4(HO2)8
_chemical_formula_sum   'Rb2 Mg1 P4 H8 O16'
_cell_volume   378.14810572
_cell_formula_units_Z   1
loop_
 _symmetry_equiv_pos_site_id
 _symmetry_equiv_pos_as_xyz
  1  'x, y, z'
loop_
 _atom_site_type_symbol
 _atom_site_label
 _atom_site_symmetry_multiplicity
 _atom_site_fract_x
 _atom_site_fract_y
 _atom_site_fract_z
 _atom_site_occupancy
  Rb  Rb0  1  0.40070600  0.28118500  0.21084400  1
  Rb  Rb1  1  0.59929400  0.71881500  0.78915600  1
  Mg  Mg2  1  0.00000000  0.50000000  0.00000000  1
  P  P3  1  0.15121900  0.73604700  0.25899000  1
  P  P4  1  0.73273700  0.80613900  0.25798700  1
  P  P5  1  0.26726300  0.19386100  0.74201300  1
  P  P6  1  0.84878100  0.26395300  0.74101000  1
  H  H7  1  0.24539600  0.96520800  0.03912800  1
  H  H8  1  0.87737900  0.17712500  0.21123500  1
  H  H9  1  0.88145800  0.30977100  0.35209700  1
  H  H10  1  0.41461200  0.73333900  0.42369800  1
  H  H11  1  0.58538800  0.26666100  0.57630200  1
  H  H12  1  0.11854200  0.69022900  0.64790300  1
  H  H13  1  0.12262100  0.82287500  0.78876500  1
  H  H14  1  0.75460400  0.03479200  0.96087200  1
  O  O15  1  0.18272700  0.61655800  0.11136500  1
  O  O16  1  0.74651400  0.65611100  0.14449600  1
  O  O17  1  0.75433200  0.99855600  0.15696300  1
  O  O18  1  0.25013000  0.92619700  0.17129500  1
  O  O19  1  0.94109100  0.28716100  0.22262700  1
  O  O20  1  0.90898800  0.77534900  0.35570000  1
  O  O21  1  0.22773400  0.65947900  0.41603100  1
  O  O22  1  0.53914200  0.79259300  0.43604500  1
  O  O23  1  0.46085800  0.20740700  0.56395500  1
  O  O24  1  0.77226600  0.34052100  0.58396900  1
  O  O25  1  0.09101200  0.22465100  0.64430000  1
  O  O26  1  0.05890900  0.71283900  0.77737300  1
  O  O27  1  0.74987000  0.07380300  0.82870500  1
  O  O28  1  0.24566800  0.00144400  0.84303700  1
  O  O29  1  0.25348600  0.34388900  0.85550400  1
  O  O30  1  0.81727300  0.38344200  0.88863500  1
