# generated using pymatgen
data_TbBr3
_symmetry_space_group_name_H-M   'P 1'
_cell_length_a   10.29417606
_cell_length_b   10.29417606
_cell_length_c   3.77479100
_cell_angle_alpha   90.00000000
_cell_angle_beta   90.00000000
_cell_angle_gamma   120.00000041
_symmetry_Int_Tables_number   1
_chemical_formula_structural   TbBr3
_chemical_formula_sum   'Tb2 Br6'
_cell_volume   346.42300486
_cell_formula_units_Z   2
loop_
 _symmetry_equiv_pos_site_id
 _symmetry_equiv_pos_as_xyz
  1  'x, y, z'
loop_
 _atom_site_type_symbol
 _atom_site_label
 _atom_site_symmetry_multiplicity
 _atom_site_fract_x
 _atom_site_fract_y
 _atom_site_fract_z
 _atom_site_occupancy
  Tb  Tb0  1  0.33333300  0.66666700  0.75000000  1
  Tb  Tb1  1  0.66666700  0.33333300  0.25000000  1
  Br  Br2  1  0.21370100  0.42740100  0.25000000  1
  Br  Br3  1  0.57259900  0.78629900  0.25000000  1
  Br  Br4  1  0.21370100  0.78629900  0.25000000  1
  Br  Br5  1  0.78629900  0.57259900  0.75000000  1
  Br  Br6  1  0.42740100  0.21370100  0.75000000  1
  Br  Br7  1  0.78629900  0.21370100  0.75000000  1
