# generated using pymatgen
data_CsNpCuS3
_symmetry_space_group_name_H-M   'P 1'
_cell_length_a   7.99727422
_cell_length_b   7.99727422
_cell_length_c   10.19887200
_cell_angle_alpha   90.00000000
_cell_angle_beta   90.00000000
_cell_angle_gamma   150.87292978
_symmetry_Int_Tables_number   1
_chemical_formula_structural   CsNpCuS3
_chemical_formula_sum   'Cs2 Np2 Cu2 S6'
_cell_volume   317.49758701
_cell_formula_units_Z   2
loop_
 _symmetry_equiv_pos_site_id
 _symmetry_equiv_pos_as_xyz
  1  'x, y, z'
loop_
 _atom_site_type_symbol
 _atom_site_label
 _atom_site_symmetry_multiplicity
 _atom_site_fract_x
 _atom_site_fract_y
 _atom_site_fract_z
 _atom_site_occupancy
  Cs  Cs0  1  0.74041100  0.25958900  0.25000000  1
  Cs  Cs1  1  0.25958900  0.74041100  0.75000000  1
  Np  Np2  1  0.00000000  0.00000000  0.50000000  1
  Np  Np3  1  0.00000000  0.00000000  0.00000000  1
  Cu  Cu4  1  0.46542000  0.53458000  0.25000000  1
  Cu  Cu5  1  0.53458000  0.46542000  0.75000000  1
  S  S6  1  0.38798400  0.61201600  0.44242300  1
  S  S7  1  0.05124400  0.94875600  0.25000000  1
  S  S8  1  0.38798400  0.61201600  0.05757700  1
  S  S9  1  0.61201600  0.38798400  0.94242300  1
  S  S10  1  0.94875600  0.05124400  0.75000000  1
  S  S11  1  0.61201600  0.38798400  0.55757700  1
