# generated using pymatgen
data_BiTeO4
_symmetry_space_group_name_H-M   'P 1'
_cell_length_a   7.06812745
_cell_length_b   7.06812745
_cell_length_c   10.45194296
_cell_angle_alpha   66.92772826
_cell_angle_beta   66.92772826
_cell_angle_gamma   47.16644039
_symmetry_Int_Tables_number   1
_chemical_formula_structural   BiTeO4
_chemical_formula_sum   'Bi4 Te4 O16'
_cell_volume   346.14502422
_cell_formula_units_Z   4
loop_
 _symmetry_equiv_pos_site_id
 _symmetry_equiv_pos_as_xyz
  1  'x, y, z'
loop_
 _atom_site_type_symbol
 _atom_site_label
 _atom_site_symmetry_multiplicity
 _atom_site_fract_x
 _atom_site_fract_y
 _atom_site_fract_z
 _atom_site_occupancy
  Bi  Bi0  1  0.77042200  0.68101600  0.15444900  1
  Bi  Bi1  1  0.95942100  0.04102800  0.74251300  1
  Bi  Bi2  1  0.04102800  0.95942100  0.24251300  1
  Bi  Bi3  1  0.68101600  0.77042200  0.65444900  1
  Te  Te4  1  0.35076800  0.19318600  0.38443700  1
  Te  Te5  1  0.50839900  0.49405800  0.50328600  1
  Te  Te6  1  0.19318600  0.35076800  0.88443700  1
  Te  Te7  1  0.49405800  0.50839900  0.00328600  1
  O  O8  1  0.14442500  0.65616500  0.11900800  1
  O  O9  1  0.28205000  0.08573000  0.59151100  1
  O  O10  1  0.35445600  0.79370700  0.84179300  1
  O  O11  1  0.72814500  0.47869800  0.58225500  1
  O  O12  1  0.36154700  0.84354700  0.38270800  1
  O  O13  1  0.08573000  0.28205000  0.09151100  1
  O  O14  1  0.49047700  0.29458400  0.91902900  1
  O  O15  1  0.79370700  0.35445600  0.34179300  1
  O  O16  1  0.20703500  0.64081500  0.65693300  1
  O  O17  1  0.47869800  0.72814500  0.08225500  1
  O  O18  1  0.91972100  0.71144000  0.90368000  1
  O  O19  1  0.65616500  0.14442500  0.61900800  1
  O  O20  1  0.29458400  0.49047700  0.41902900  1
  O  O21  1  0.64081500  0.20703500  0.15693300  1
  O  O22  1  0.71144000  0.91972100  0.40368000  1
  O  O23  1  0.84354700  0.36154700  0.88270800  1
