# generated using pymatgen
data_Li3MnV(P2O7)2
_symmetry_space_group_name_H-M   'P 1'
_cell_length_a   7.23680024
_cell_length_b   9.79590371
_cell_length_c   9.76933262
_cell_angle_alpha   62.11008017
_cell_angle_beta   101.84729866
_cell_angle_gamma   79.43603611
_symmetry_Int_Tables_number   1
_chemical_formula_structural   Li3MnV(P2O7)2
_chemical_formula_sum   'Li6 Mn2 V2 P8 O28'
_cell_volume   566.97315563
_cell_formula_units_Z   2
loop_
 _symmetry_equiv_pos_site_id
 _symmetry_equiv_pos_as_xyz
  1  'x, y, z'
loop_
 _atom_site_type_symbol
 _atom_site_label
 _atom_site_symmetry_multiplicity
 _atom_site_fract_x
 _atom_site_fract_y
 _atom_site_fract_z
 _atom_site_occupancy
  Li  Li0  1  0.33785800  0.16722200  0.68428300  1
  Li  Li1  1  0.33896500  0.66689700  0.18458300  1
  Li  Li2  1  0.90476300  0.49212700  0.66962000  1
  Li  Li3  1  0.90406200  0.99128000  0.16985400  1
  Li  Li4  1  0.65703300  0.44060200  0.91650300  1
  Li  Li5  1  0.65662800  0.94093100  0.41573700  1
  Mn  Mn6  1  0.72999500  0.22544300  0.75825700  1
  Mn  Mn7  1  0.73013700  0.72556600  0.25822900  1
  V  V8  1  0.27619700  0.00691500  0.49754000  1
  V  V9  1  0.27521400  0.50686600  0.99796200  1
  P  P10  1  0.47553500  0.65926600  0.52660900  1
  P  P11  1  0.47453500  0.15944400  0.02638500  1
  P  P12  1  0.91955700  0.81938900  0.96225100  1
  P  P13  1  0.91935800  0.31933600  0.46247900  1
  P  P14  1  0.08835800  0.70943200  0.58794900  1
  P  P15  1  0.08782700  0.20848400  0.08819900  1
  P  P16  1  0.52197100  0.77581300  0.90265500  1
  P  P17  1  0.52177200  0.27567400  0.40331800  1
  O  O18  1  0.12189100  0.07029800  0.26467400  1
  O  O19  1  0.12091500  0.57097600  0.76382700  1
  O  O20  1  0.11735800  0.20359000  0.49061300  1
  O  O21  1  0.11784600  0.70347500  0.99091900  1
  O  O22  1  0.49557000  0.66907500  0.37071200  1
  O  O23  1  0.49431400  0.17015000  0.87010600  1
  O  O24  1  0.47990100  0.81857600  0.52193500  1
  O  O25  1  0.47866800  0.31832000  0.02272800  1
  O  O26  1  0.41565500  0.93625800  0.73454800  1
  O  O27  1  0.41498300  0.43610200  0.23547700  1
  O  O28  1  0.09433100  0.87089300  0.56884500  1
  O  O29  1  0.09257300  0.37077500  0.06751800  1
  O  O30  1  0.25645400  0.64346500  0.52672400  1
  O  O31  1  0.25574100  0.14284500  0.02673800  1
  O  O32  1  0.75796100  0.73273700  0.92747700  1
  O  O33  1  0.75761700  0.23252000  0.42830800  1
  O  O34  1  0.92599800  0.81776000  0.12205500  1
  O  O35  1  0.92606200  0.31825100  0.62210900  1
  O  O36  1  0.63102600  0.51020800  0.68495300  1
  O  O37  1  0.63026100  0.01036700  0.18449600  1
  O  O38  1  0.49026800  0.79326900  0.04382300  1
  O  O39  1  0.49005700  0.29268000  0.54473500  1
  O  O40  1  0.47515200  0.62690500  0.90699000  1
  O  O41  1  0.47529600  0.12673800  0.40727300  1
  O  O42  1  0.88901200  0.22188500  0.98079200  1
  O  O43  1  0.88952400  0.72433300  0.47901200  1
  O  O44  1  0.86173000  0.48911700  0.31507700  1
  O  O45  1  0.86303100  0.98913200  0.81512100  1
