# generated using pymatgen
data_Ba2CuO3
_symmetry_space_group_name_H-M   'P 1'
_cell_length_a   7.17678117
_cell_length_b   7.17678117
_cell_length_c   7.17678117
_cell_angle_alpha   148.84786861
_cell_angle_beta   146.19170662
_cell_angle_gamma   46.63049572
_symmetry_Int_Tables_number   1
_chemical_formula_structural   Ba2CuO3
_chemical_formula_sum   'Ba2 Cu1 O3'
_cell_volume   106.01745754
_cell_formula_units_Z   1
loop_
 _symmetry_equiv_pos_site_id
 _symmetry_equiv_pos_as_xyz
  1  'x, y, z'
loop_
 _atom_site_type_symbol
 _atom_site_label
 _atom_site_symmetry_multiplicity
 _atom_site_fract_x
 _atom_site_fract_y
 _atom_site_fract_z
 _atom_site_occupancy
  Ba  Ba0  1  0.14523800  0.64523800  0.50000000  1
  Ba  Ba1  1  0.85476200  0.35476200  0.50000000  1
  Cu  Cu2  1  0.50000000  0.00000000  0.50000000  1
  O  O3  1  0.00000000  0.00000000  0.00000000  1
  O  O4  1  0.35267200  0.85267200  0.50000000  1
  O  O5  1  0.64732800  0.14732800  0.50000000  1
