# generated using pymatgen
data_Sr(AlSe2)2
_symmetry_space_group_name_H-M   'P 1'
_cell_length_a   6.37864337
_cell_length_b   6.37864337
_cell_length_c   11.14119100
_cell_angle_alpha   90.00000000
_cell_angle_beta   90.00000000
_cell_angle_gamma   121.21620653
_symmetry_Int_Tables_number   1
_chemical_formula_structural   Sr(AlSe2)2
_chemical_formula_sum   'Sr2 Al4 Se8'
_cell_volume   387.67245299
_cell_formula_units_Z   2
loop_
 _symmetry_equiv_pos_site_id
 _symmetry_equiv_pos_as_xyz
  1  'x, y, z'
loop_
 _atom_site_type_symbol
 _atom_site_label
 _atom_site_symmetry_multiplicity
 _atom_site_fract_x
 _atom_site_fract_y
 _atom_site_fract_z
 _atom_site_occupancy
  Sr  Sr0  1  0.50000000  0.50000000  0.25000000  1
  Sr  Sr1  1  0.50000000  0.50000000  0.75000000  1
  Al  Al2  1  0.24181400  0.76052700  0.00000000  1
  Al  Al3  1  0.75818600  0.23947300  0.00000000  1
  Al  Al4  1  0.76052700  0.24181400  0.50000000  1
  Al  Al5  1  0.23947300  0.75818600  0.50000000  1
  Se  Se6  1  0.00000000  0.50000000  0.33383200  1
  Se  Se7  1  0.00000000  0.50000000  0.66616800  1
  Se  Se8  1  0.50000000  0.00000000  0.83383200  1
  Se  Se9  1  0.64993900  0.81899600  0.50000000  1
  Se  Se10  1  0.35006100  0.18100400  0.50000000  1
  Se  Se11  1  0.81899600  0.64993900  0.00000000  1
  Se  Se12  1  0.18100400  0.35006100  0.00000000  1
  Se  Se13  1  0.50000000  0.00000000  0.16616800  1
