# generated using pymatgen
data_Ta2PdSe6
_symmetry_space_group_name_H-M   'P 1'
_cell_length_a   7.28947666
_cell_length_b   7.28947666
_cell_length_c   11.17200918
_cell_angle_alpha   59.34558307
_cell_angle_beta   59.34558307
_cell_angle_gamma   27.02435544
_symmetry_Int_Tables_number   1
_chemical_formula_structural   Ta2PdSe6
_chemical_formula_sum   'Ta2 Pd1 Se6'
_cell_volume   229.67392622
_cell_formula_units_Z   1
loop_
 _symmetry_equiv_pos_site_id
 _symmetry_equiv_pos_as_xyz
  1  'x, y, z'
loop_
 _atom_site_type_symbol
 _atom_site_label
 _atom_site_symmetry_multiplicity
 _atom_site_fract_x
 _atom_site_fract_y
 _atom_site_fract_z
 _atom_site_occupancy
  Ta  Ta0  1  0.32259900  0.32259900  0.29090500  1
  Ta  Ta1  1  0.67740100  0.67740100  0.70909500  1
  Pd  Pd2  1  0.00000000  0.00000000  0.00000000  1
  Se  Se3  1  0.79393800  0.79393800  0.13399000  1
  Se  Se4  1  0.20606200  0.20606200  0.86601000  1
  Se  Se5  1  0.33062300  0.33062300  0.53312300  1
  Se  Se6  1  0.98239300  0.98239300  0.23341900  1
  Se  Se7  1  0.01760700  0.01760700  0.76658100  1
  Se  Se8  1  0.66937700  0.66937700  0.46687700  1
