# generated using pymatgen
data_LiNO3
_symmetry_space_group_name_H-M   'P 1'
_cell_length_a   5.82632430
_cell_length_b   5.82632430
_cell_length_c   5.82632458
_cell_angle_alpha   48.27425907
_cell_angle_beta   48.27425907
_cell_angle_gamma   48.27426497
_symmetry_Int_Tables_number   1
_chemical_formula_structural   LiNO3
_chemical_formula_sum   'Li2 N2 O6'
_cell_volume   100.98995401
_cell_formula_units_Z   2
loop_
 _symmetry_equiv_pos_site_id
 _symmetry_equiv_pos_as_xyz
  1  'x, y, z'
loop_
 _atom_site_type_symbol
 _atom_site_label
 _atom_site_symmetry_multiplicity
 _atom_site_fract_x
 _atom_site_fract_y
 _atom_site_fract_z
 _atom_site_occupancy
  Li  Li0  1  0.50000000  0.50000000  0.50000000  1
  Li  Li1  1  0.00000000  0.00000000  0.00000000  1
  N  N2  1  0.75000000  0.75000000  0.75000000  1
  N  N3  1  0.25000000  0.25000000  0.25000000  1
  O  O4  1  0.48417500  0.01582500  0.75000000  1
  O  O5  1  0.01582500  0.75000000  0.48417500  1
  O  O6  1  0.75000000  0.48417500  0.01582500  1
  O  O7  1  0.51582500  0.98417500  0.25000000  1
  O  O8  1  0.98417500  0.25000000  0.51582500  1
  O  O9  1  0.25000000  0.51582500  0.98417500  1
