# generated using pymatgen
data_Rb3InO3
_symmetry_space_group_name_H-M   'P 1'
_cell_length_a   7.17845300
_cell_length_b   7.89453800
_cell_length_c   11.57078311
_cell_angle_alpha   85.61097683
_cell_angle_beta   90.00000000
_cell_angle_gamma   90.00000000
_symmetry_Int_Tables_number   1
_chemical_formula_structural   Rb3InO3
_chemical_formula_sum   'Rb12 In4 O12'
_cell_volume   653.79992206
_cell_formula_units_Z   4
loop_
 _symmetry_equiv_pos_site_id
 _symmetry_equiv_pos_as_xyz
  1  'x, y, z'
loop_
 _atom_site_type_symbol
 _atom_site_label
 _atom_site_symmetry_multiplicity
 _atom_site_fract_x
 _atom_site_fract_y
 _atom_site_fract_z
 _atom_site_occupancy
  Rb  Rb0  1  0.31928600  0.36007600  0.07475700  1
  Rb  Rb1  1  0.62702800  0.94397500  0.15457800  1
  Rb  Rb2  1  0.80402800  0.36813000  0.19245000  1
  Rb  Rb3  1  0.30402800  0.63187000  0.30755000  1
  Rb  Rb4  1  0.12702800  0.05602500  0.34542200  1
  Rb  Rb5  1  0.81928600  0.63992400  0.42524300  1
  Rb  Rb6  1  0.18071400  0.36007600  0.57475700  1
  Rb  Rb7  1  0.87297200  0.94397500  0.65457800  1
  Rb  Rb8  1  0.69597200  0.36813000  0.69245000  1
  Rb  Rb9  1  0.19597200  0.63187000  0.80755000  1
  Rb  Rb10  1  0.37297200  0.05602500  0.84542200  1
  Rb  Rb11  1  0.68071400  0.63992400  0.92524300  1
  In  In12  1  0.08877500  0.83886700  0.06665300  1
  In  In13  1  0.58877500  0.16113300  0.43334700  1
  In  In14  1  0.41122500  0.83886700  0.56665300  1
  In  In15  1  0.91122500  0.16113300  0.93334700  1
  O  O16  1  0.35378700  0.74627600  0.03803400  1
  O  O17  1  0.04224300  0.10294500  0.10014100  1
  O  O18  1  0.93822200  0.69364900  0.18987700  1
  O  O19  1  0.43822200  0.30635100  0.31012300  1
  O  O20  1  0.54224300  0.89705500  0.39985900  1
  O  O21  1  0.85378700  0.25372400  0.46196600  1
  O  O22  1  0.14621300  0.74627600  0.53803400  1
  O  O23  1  0.45775700  0.10294500  0.60014100  1
  O  O24  1  0.56177800  0.69364900  0.68987700  1
  O  O25  1  0.06177800  0.30635100  0.81012300  1
  O  O26  1  0.95775700  0.89705500  0.89985900  1
  O  O27  1  0.64621300  0.25372400  0.96196600  1
