# generated using pymatgen
data_Cs2SnO3
_symmetry_space_group_name_H-M   'P 1'
_cell_length_a   6.93899840
_cell_length_b   6.93899840
_cell_length_c   5.92843100
_cell_angle_alpha   90.00000000
_cell_angle_beta   90.00000000
_cell_angle_gamma   110.78549096
_symmetry_Int_Tables_number   1
_chemical_formula_structural   Cs2SnO3
_chemical_formula_sum   'Cs4 Sn2 O6'
_cell_volume   266.87367544
_cell_formula_units_Z   2
loop_
 _symmetry_equiv_pos_site_id
 _symmetry_equiv_pos_as_xyz
  1  'x, y, z'
loop_
 _atom_site_type_symbol
 _atom_site_label
 _atom_site_symmetry_multiplicity
 _atom_site_fract_x
 _atom_site_fract_y
 _atom_site_fract_z
 _atom_site_occupancy
  Cs  Cs0  1  0.51734000  0.19282600  0.75000000  1
  Cs  Cs1  1  0.80717400  0.48266000  0.25000000  1
  Cs  Cs2  1  0.48266000  0.80717400  0.25000000  1
  Cs  Cs3  1  0.19282600  0.51734000  0.75000000  1
  Sn  Sn4  1  0.08291900  0.08291900  0.25000000  1
  Sn  Sn5  1  0.91708100  0.91708100  0.75000000  1
  O  O6  1  0.88156900  0.11843100  0.00000000  1
  O  O7  1  0.88156900  0.11843100  0.50000000  1
  O  O8  1  0.66758000  0.66758000  0.75000000  1
  O  O9  1  0.33242000  0.33242000  0.25000000  1
  O  O10  1  0.11843100  0.88156900  0.00000000  1
  O  O11  1  0.11843100  0.88156900  0.50000000  1
