# generated using pymatgen
data_MgAg3
_symmetry_space_group_name_H-M   'P 1'
_cell_length_a   5.88055523
_cell_length_b   5.88055523
_cell_length_c   4.83298200
_cell_angle_alpha   90.00000000
_cell_angle_beta   90.00000000
_cell_angle_gamma   119.99999138
_symmetry_Int_Tables_number   1
_chemical_formula_structural   MgAg3
_chemical_formula_sum   'Mg2 Ag6'
_cell_volume   144.73798229
_cell_formula_units_Z   2
loop_
 _symmetry_equiv_pos_site_id
 _symmetry_equiv_pos_as_xyz
  1  'x, y, z'
loop_
 _atom_site_type_symbol
 _atom_site_label
 _atom_site_symmetry_multiplicity
 _atom_site_fract_x
 _atom_site_fract_y
 _atom_site_fract_z
 _atom_site_occupancy
  Mg  Mg0  1  0.66666700  0.33333300  0.25000000  1
  Mg  Mg1  1  0.33333300  0.66666700  0.75000000  1
  Ag  Ag2  1  0.16677400  0.33354700  0.25000000  1
  Ag  Ag3  1  0.66645300  0.83322600  0.25000000  1
  Ag  Ag4  1  0.16677400  0.83322600  0.25000000  1
  Ag  Ag5  1  0.83322600  0.16677400  0.75000000  1
  Ag  Ag6  1  0.33354700  0.16677400  0.75000000  1
  Ag  Ag7  1  0.83322600  0.66645300  0.75000000  1
