# generated using pymatgen
data_Be3Ni
_symmetry_space_group_name_H-M   'P 1'
_cell_length_a   4.07522980
_cell_length_b   4.07522980
_cell_length_c   4.07522980
_cell_angle_alpha   134.59545249
_cell_angle_beta   134.59545249
_cell_angle_gamma   66.15942899
_symmetry_Int_Tables_number   1
_chemical_formula_structural   Be3Ni
_chemical_formula_sum   'Be3 Ni1'
_cell_volume   33.78782788
_cell_formula_units_Z   1
loop_
 _symmetry_equiv_pos_site_id
 _symmetry_equiv_pos_as_xyz
  1  'x, y, z'
loop_
 _atom_site_type_symbol
 _atom_site_label
 _atom_site_symmetry_multiplicity
 _atom_site_fract_x
 _atom_site_fract_y
 _atom_site_fract_z
 _atom_site_occupancy
  Be  Be0  1  0.75000000  0.25000000  0.50000000  1
  Be  Be1  1  0.25000000  0.75000000  0.50000000  1
  Be  Be2  1  0.50000000  0.50000000  0.00000000  1
  Ni  Ni3  1  0.00000000  0.00000000  0.00000000  1
