# generated using pymatgen
data_K2Ti6O13
_symmetry_space_group_name_H-M   'P 1'
_cell_length_a   8.13943617
_cell_length_b   8.13943617
_cell_length_c   9.23646618
_cell_angle_alpha   80.20140873
_cell_angle_beta   80.20140873
_cell_angle_gamma   27.14465400
_symmetry_Int_Tables_number   1
_chemical_formula_structural   K2Ti6O13
_chemical_formula_sum   'K2 Ti6 O13'
_cell_volume   274.86950455
_cell_formula_units_Z   1
loop_
 _symmetry_equiv_pos_site_id
 _symmetry_equiv_pos_as_xyz
  1  'x, y, z'
loop_
 _atom_site_type_symbol
 _atom_site_label
 _atom_site_symmetry_multiplicity
 _atom_site_fract_x
 _atom_site_fract_y
 _atom_site_fract_z
 _atom_site_occupancy
  K  K0  1  0.45552800  0.45552800  0.75065800  1
  K  K1  1  0.54447200  0.54447200  0.24934200  1
  Ti  Ti2  1  0.23156600  0.23156600  0.22359300  1
  Ti  Ti3  1  0.76843400  0.76843400  0.77640700  1
  Ti  Ti4  1  0.17153300  0.17153300  0.56254500  1
  Ti  Ti5  1  0.82846700  0.82846700  0.43745500  1
  Ti  Ti6  1  0.11467500  0.11467500  0.90402200  1
  Ti  Ti7  1  0.88532500  0.88532500  0.09597800  1
  O  O8  1  0.16642700  0.16642700  0.08550400  1
  O  O9  1  0.83357300  0.83357300  0.91449600  1
  O  O10  1  0.35788600  0.35788600  0.11207300  1
  O  O11  1  0.64211400  0.64211400  0.88792700  1
  O  O12  1  0.13484300  0.13484300  0.38515800  1
  O  O13  1  0.86515700  0.86515700  0.61484200  1
  O  O14  1  0.29663600  0.29663600  0.42858800  1
  O  O15  1  0.70336400  0.70336400  0.57141200  1
  O  O16  1  0.00000000  0.00000000  0.00000000  1
  O  O17  1  0.76063200  0.76063200  0.23992600  1
  O  O18  1  0.23936800  0.23936800  0.76007400  1
  O  O19  1  0.92140100  0.92140100  0.29021500  1
  O  O20  1  0.07859900  0.07859900  0.70978500  1
