# generated using pymatgen
data_Re3Pt
_symmetry_space_group_name_H-M   'P 1'
_cell_length_a   5.59456079
_cell_length_b   5.59456079
_cell_length_c   4.43712000
_cell_angle_alpha   90.00000000
_cell_angle_beta   90.00000000
_cell_angle_gamma   120.00000939
_symmetry_Int_Tables_number   1
_chemical_formula_structural   Re3Pt
_chemical_formula_sum   'Re6 Pt2'
_cell_volume   120.27178592
_cell_formula_units_Z   2
loop_
 _symmetry_equiv_pos_site_id
 _symmetry_equiv_pos_as_xyz
  1  'x, y, z'
loop_
 _atom_site_type_symbol
 _atom_site_label
 _atom_site_symmetry_multiplicity
 _atom_site_fract_x
 _atom_site_fract_y
 _atom_site_fract_z
 _atom_site_occupancy
  Re  Re0  1  0.15927500  0.31855100  0.25000000  1
  Re  Re1  1  0.68144900  0.84072500  0.25000000  1
  Re  Re2  1  0.15927500  0.84072500  0.25000000  1
  Re  Re3  1  0.84072500  0.68144900  0.75000000  1
  Re  Re4  1  0.31855100  0.15927500  0.75000000  1
  Re  Re5  1  0.84072500  0.15927500  0.75000000  1
  Pt  Pt6  1  0.33333300  0.66666700  0.75000000  1
  Pt  Pt7  1  0.66666700  0.33333300  0.25000000  1
