# generated using pymatgen
data_LuCl3
_symmetry_space_group_name_H-M   'P 1'
_cell_length_a   9.98268182
_cell_length_b   9.98268182
_cell_length_c   3.48908300
_cell_angle_alpha   90.00000000
_cell_angle_beta   90.00000000
_cell_angle_gamma   119.99999880
_symmetry_Int_Tables_number   1
_chemical_formula_structural   LuCl3
_chemical_formula_sum   'Lu2 Cl6'
_cell_volume   301.11777698
_cell_formula_units_Z   2
loop_
 _symmetry_equiv_pos_site_id
 _symmetry_equiv_pos_as_xyz
  1  'x, y, z'
loop_
 _atom_site_type_symbol
 _atom_site_label
 _atom_site_symmetry_multiplicity
 _atom_site_fract_x
 _atom_site_fract_y
 _atom_site_fract_z
 _atom_site_occupancy
  Lu  Lu0  1  0.66666700  0.33333300  0.25000000  1
  Lu  Lu1  1  0.33333300  0.66666700  0.75000000  1
  Cl  Cl2  1  0.77895300  0.22104700  0.75000000  1
  Cl  Cl3  1  0.44209500  0.22104700  0.75000000  1
  Cl  Cl4  1  0.77895300  0.55790500  0.75000000  1
  Cl  Cl5  1  0.22104700  0.77895300  0.25000000  1
  Cl  Cl6  1  0.55790500  0.77895300  0.25000000  1
  Cl  Cl7  1  0.22104700  0.44209500  0.25000000  1
