# generated using pymatgen
data_RbNa2BO3
_symmetry_space_group_name_H-M   'P 1'
_cell_length_a   5.63031900
_cell_length_b   5.74036600
_cell_length_c   6.19913600
_cell_angle_alpha   90.00000000
_cell_angle_beta   90.00000000
_cell_angle_gamma   90.00000000
_symmetry_Int_Tables_number   1
_chemical_formula_structural   RbNa2BO3
_chemical_formula_sum   'Rb2 Na4 B2 O6'
_cell_volume   200.35664433
_cell_formula_units_Z   2
loop_
 _symmetry_equiv_pos_site_id
 _symmetry_equiv_pos_as_xyz
  1  'x, y, z'
loop_
 _atom_site_type_symbol
 _atom_site_label
 _atom_site_symmetry_multiplicity
 _atom_site_fract_x
 _atom_site_fract_y
 _atom_site_fract_z
 _atom_site_occupancy
  Rb  Rb0  1  0.89368300  0.50000000  0.50000000  1
  Rb  Rb1  1  0.10631700  0.00000000  0.00000000  1
  Na  Na2  1  0.36486100  0.50000000  0.76900000  1
  Na  Na3  1  0.36486100  0.50000000  0.23100000  1
  Na  Na4  1  0.63513900  0.00000000  0.73100000  1
  Na  Na5  1  0.63513900  0.00000000  0.26900000  1
  B  B6  1  0.78659700  0.50000000  0.00000000  1
  B  B7  1  0.21340300  0.00000000  0.50000000  1
  O  O8  1  0.65600400  0.29063400  0.00000000  1
  O  O9  1  0.34399600  0.20936600  0.50000000  1
  O  O10  1  0.03364500  0.50000000  0.00000000  1
  O  O11  1  0.96635500  0.00000000  0.50000000  1
  O  O12  1  0.34399600  0.79063400  0.50000000  1
  O  O13  1  0.65600400  0.70936600  0.00000000  1
