# generated using pymatgen
data_PmNi3
_symmetry_space_group_name_H-M   'P 1'
_cell_length_a   5.84290511
_cell_length_b   5.84290511
_cell_length_c   4.23453000
_cell_angle_alpha   90.00000000
_cell_angle_beta   90.00000000
_cell_angle_gamma   119.99998992
_symmetry_Int_Tables_number   1
_chemical_formula_structural   PmNi3
_chemical_formula_sum   'Pm2 Ni6'
_cell_volume   125.19689453
_cell_formula_units_Z   2
loop_
 _symmetry_equiv_pos_site_id
 _symmetry_equiv_pos_as_xyz
  1  'x, y, z'
loop_
 _atom_site_type_symbol
 _atom_site_label
 _atom_site_symmetry_multiplicity
 _atom_site_fract_x
 _atom_site_fract_y
 _atom_site_fract_z
 _atom_site_occupancy
  Pm  Pm0  1  0.33333300  0.66666700  0.75000000  1
  Pm  Pm1  1  0.66666700  0.33333300  0.25000000  1
  Ni  Ni2  1  0.14046500  0.28093100  0.25000000  1
  Ni  Ni3  1  0.71906900  0.85953500  0.25000000  1
  Ni  Ni4  1  0.14046500  0.85953500  0.25000000  1
  Ni  Ni5  1  0.85953500  0.71906900  0.75000000  1
  Ni  Ni6  1  0.28093100  0.14046500  0.75000000  1
  Ni  Ni7  1  0.85953500  0.14046500  0.75000000  1
