# generated using pymatgen
data_Ta2OsW
_symmetry_space_group_name_H-M   'P 1'
_cell_length_a   4.54613516
_cell_length_b   4.54613516
_cell_length_c   4.54613516
_cell_angle_alpha   60.00000000
_cell_angle_beta   60.00000000
_cell_angle_gamma   60.00000000
_symmetry_Int_Tables_number   1
_chemical_formula_structural   Ta2OsW
_chemical_formula_sum   'Ta2 Os1 W1'
_cell_volume   66.43730890
_cell_formula_units_Z   1
loop_
 _symmetry_equiv_pos_site_id
 _symmetry_equiv_pos_as_xyz
  1  'x, y, z'
loop_
 _atom_site_type_symbol
 _atom_site_label
 _atom_site_symmetry_multiplicity
 _atom_site_fract_x
 _atom_site_fract_y
 _atom_site_fract_z
 _atom_site_occupancy
  Ta  Ta0  1  0.25000000  0.25000000  0.25000000  1
  Ta  Ta1  1  0.75000000  0.75000000  0.75000000  1
  Os  Os2  1  0.50000000  0.50000000  0.50000000  1
  W  W3  1  0.00000000  0.00000000  0.00000000  1
