# generated using pymatgen
data_Dy2Ni12P7
_symmetry_space_group_name_H-M   'P 1'
_cell_length_a   9.02848443
_cell_length_b   9.02848443
_cell_length_c   3.68033700
_cell_angle_alpha   90.00000000
_cell_angle_beta   90.00000000
_cell_angle_gamma   120.00000316
_symmetry_Int_Tables_number   1
_chemical_formula_structural   Dy2Ni12P7
_chemical_formula_sum   'Dy2 Ni12 P7'
_cell_volume   259.80524395
_cell_formula_units_Z   1
loop_
 _symmetry_equiv_pos_site_id
 _symmetry_equiv_pos_as_xyz
  1  'x, y, z'
loop_
 _atom_site_type_symbol
 _atom_site_label
 _atom_site_symmetry_multiplicity
 _atom_site_fract_x
 _atom_site_fract_y
 _atom_site_fract_z
 _atom_site_occupancy
  Dy  Dy0  1  0.66666700  0.33333300  0.00000000  1
  Dy  Dy1  1  0.00000000  0.00000000  0.50000000  1
  Ni  Ni2  1  0.71444000  0.09705200  0.50000000  1
  Ni  Ni3  1  0.90294800  0.61738800  0.50000000  1
  Ni  Ni4  1  0.38261200  0.28556000  0.50000000  1
  Ni  Ni5  1  0.76853500  0.72652900  0.00000000  1
  Ni  Ni6  1  0.27347100  0.04200600  0.00000000  1
  Ni  Ni7  1  0.95799400  0.23146500  0.00000000  1
  Ni  Ni8  1  0.54967200  0.76131100  0.50000000  1
  Ni  Ni9  1  0.23868900  0.78836100  0.50000000  1
  Ni  Ni10  1  0.21163900  0.45032800  0.50000000  1
  Ni  Ni11  1  0.48499000  0.94136400  0.00000000  1
  Ni  Ni12  1  0.05863600  0.54362600  0.00000000  1
  Ni  Ni13  1  0.45637400  0.51501000  0.00000000  1
  P  P14  1  0.44377800  0.07211800  0.50000000  1
  P  P15  1  0.92788200  0.37166000  0.50000000  1
  P  P16  1  0.62834000  0.55622200  0.50000000  1
  P  P17  1  0.33333300  0.66666700  0.00000000  1
  P  P18  1  0.73953100  0.95892700  0.00000000  1
  P  P19  1  0.04107300  0.78060400  0.00000000  1
  P  P20  1  0.21939600  0.26046900  0.00000000  1
