# generated using pymatgen
data_PrB2HF10
_symmetry_space_group_name_H-M   'P 1'
_cell_length_a   5.93216500
_cell_length_b   7.14033900
_cell_length_c   8.86096706
_cell_angle_alpha   67.66996270
_cell_angle_beta   90.00000000
_cell_angle_gamma   90.00000000
_symmetry_Int_Tables_number   1
_chemical_formula_structural   PrB2HF10
_chemical_formula_sum   'Pr2 B4 H2 F20'
_cell_volume   347.18416888
_cell_formula_units_Z   2
loop_
 _symmetry_equiv_pos_site_id
 _symmetry_equiv_pos_as_xyz
  1  'x, y, z'
loop_
 _atom_site_type_symbol
 _atom_site_label
 _atom_site_symmetry_multiplicity
 _atom_site_fract_x
 _atom_site_fract_y
 _atom_site_fract_z
 _atom_site_occupancy
  Pr  Pr0  1  0.75000000  0.23183500  0.34212700  1
  Pr  Pr1  1  0.25000000  0.76816500  0.65787300  1
  B  B2  1  0.25000000  0.25232000  0.04886400  1
  B  B3  1  0.25000000  0.58174500  0.30608400  1
  B  B4  1  0.75000000  0.41825500  0.69391600  1
  B  B5  1  0.75000000  0.74768000  0.95113600  1
  H  H6  1  0.75000000  0.92934600  0.14973000  1
  H  H7  1  0.25000000  0.07065400  0.85027000  1
  F  F8  1  0.25000000  0.07556400  0.01317800  1
  F  F9  1  0.75000000  0.57561300  0.09825500  1
  F  F10  1  0.25000000  0.66471700  0.13899200  1
  F  F11  1  0.44413100  0.25300700  0.14191200  1
  F  F12  1  0.05586900  0.25300700  0.14191200  1
  F  F13  1  0.75000000  0.93524000  0.25840200  1
  F  F14  1  0.25000000  0.72942500  0.37760700  1
  F  F15  1  0.44531200  0.45470900  0.36582700  1
  F  F16  1  0.05468800  0.45470900  0.36582700  1
  F  F17  1  0.00000000  0.00000000  0.50000000  1
  F  F18  1  0.50000000  0.00000000  0.50000000  1
  F  F19  1  0.94531200  0.54529100  0.63417300  1
  F  F20  1  0.55468800  0.54529100  0.63417300  1
  F  F21  1  0.75000000  0.27057500  0.62239300  1
  F  F22  1  0.25000000  0.06476000  0.74159800  1
  F  F23  1  0.94413100  0.74699300  0.85808800  1
  F  F24  1  0.55586900  0.74699300  0.85808800  1
  F  F25  1  0.75000000  0.33528300  0.86100800  1
  F  F26  1  0.25000000  0.42438700  0.90174500  1
  F  F27  1  0.75000000  0.92443600  0.98682200  1
