# generated using pymatgen
data_Ba4Sb2O9
_symmetry_space_group_name_H-M   'P 1'
_cell_length_a   6.10408193
_cell_length_b   6.10408193
_cell_length_c   17.06238000
_cell_angle_alpha   90.00000000
_cell_angle_beta   90.00000000
_cell_angle_gamma   119.99999926
_symmetry_Int_Tables_number   1
_chemical_formula_structural   Ba4Sb2O9
_chemical_formula_sum   'Ba8 Sb4 O18'
_cell_volume   550.56798438
_cell_formula_units_Z   2
loop_
 _symmetry_equiv_pos_site_id
 _symmetry_equiv_pos_as_xyz
  1  'x, y, z'
loop_
 _atom_site_type_symbol
 _atom_site_label
 _atom_site_symmetry_multiplicity
 _atom_site_fract_x
 _atom_site_fract_y
 _atom_site_fract_z
 _atom_site_occupancy
  Ba  Ba0  1  0.66666700  0.33333300  0.87155500  1
  Ba  Ba1  1  0.33333300  0.66666700  0.12844500  1
  Ba  Ba2  1  0.33333300  0.66666700  0.37155500  1
  Ba  Ba3  1  0.66666700  0.33333300  0.62844500  1
  Ba  Ba4  1  0.00000000  0.00000000  0.50000000  1
  Ba  Ba5  1  0.00000000  0.00000000  0.00000000  1
  Ba  Ba6  1  0.00000000  0.00000000  0.75000000  1
  Ba  Ba7  1  0.00000000  0.00000000  0.25000000  1
  Sb  Sb8  1  0.33333300  0.66666700  0.66303600  1
  Sb  Sb9  1  0.66666700  0.33333300  0.33696400  1
  Sb  Sb10  1  0.66666700  0.33333300  0.16303600  1
  Sb  Sb11  1  0.33333300  0.66666700  0.83696400  1
  O  O12  1  0.17114300  0.34228600  0.88984500  1
  O  O13  1  0.82885700  0.65771400  0.11015500  1
  O  O14  1  0.65771400  0.82885700  0.88984500  1
  O  O15  1  0.34228600  0.17114300  0.11015500  1
  O  O16  1  0.17114300  0.82885700  0.88984500  1
  O  O17  1  0.82885700  0.17114300  0.11015500  1
  O  O18  1  0.82885700  0.65771400  0.38984500  1
  O  O19  1  0.17114300  0.34228600  0.61015500  1
  O  O20  1  0.34228600  0.17114300  0.38984500  1
  O  O21  1  0.65771400  0.82885700  0.61015500  1
  O  O22  1  0.82885700  0.17114300  0.38984500  1
  O  O23  1  0.17114300  0.82885700  0.61015500  1
  O  O24  1  0.51969300  0.03938500  0.25000000  1
  O  O25  1  0.48030700  0.96061500  0.75000000  1
  O  O26  1  0.96061500  0.48030700  0.25000000  1
  O  O27  1  0.03938500  0.51969300  0.75000000  1
  O  O28  1  0.51969300  0.48030700  0.25000000  1
  O  O29  1  0.48030700  0.51969300  0.75000000  1
