# generated using pymatgen
data_KGeBiS4
_symmetry_space_group_name_H-M   'P 1'
_cell_length_a   6.80733200
_cell_length_b   6.65127100
_cell_length_c   17.38548375
_cell_angle_alpha   71.95615941
_cell_angle_beta   90.00000000
_cell_angle_gamma   90.00000000
_symmetry_Int_Tables_number   1
_chemical_formula_structural   KGeBiS4
_chemical_formula_sum   'K4 Ge4 Bi4 S16'
_cell_volume   748.45650412
_cell_formula_units_Z   4
loop_
 _symmetry_equiv_pos_site_id
 _symmetry_equiv_pos_as_xyz
  1  'x, y, z'
loop_
 _atom_site_type_symbol
 _atom_site_label
 _atom_site_symmetry_multiplicity
 _atom_site_fract_x
 _atom_site_fract_y
 _atom_site_fract_z
 _atom_site_occupancy
  K  K0  1  0.25875400  0.71934500  0.03616600  1
  K  K1  1  0.75875400  0.28065500  0.46383400  1
  K  K2  1  0.74124600  0.28065500  0.96383400  1
  K  K3  1  0.24124600  0.71934500  0.53616600  1
  Ge  Ge4  1  0.73996100  0.79366400  0.15586100  1
  Ge  Ge5  1  0.23996100  0.20633600  0.34413900  1
  Ge  Ge6  1  0.26003900  0.20633600  0.84413900  1
  Ge  Ge7  1  0.76003900  0.79366400  0.65586100  1
  Bi  Bi8  1  0.29529000  0.76042000  0.28161000  1
  Bi  Bi9  1  0.79529000  0.23958000  0.21839000  1
  Bi  Bi10  1  0.70471000  0.23958000  0.71839000  1
  Bi  Bi11  1  0.20471000  0.76042000  0.78161000  1
  S  S12  1  0.50481700  0.00108600  0.35967200  1
  S  S13  1  0.00481700  0.99891400  0.14032800  1
  S  S14  1  0.49518300  0.99891400  0.64032800  1
  S  S15  1  0.99518300  0.00108600  0.85967200  1
  S  S16  1  0.75377400  0.58437100  0.07836800  1
  S  S17  1  0.25377400  0.41562900  0.42163200  1
  S  S18  1  0.24622600  0.41562900  0.92163200  1
  S  S19  1  0.74622600  0.58437100  0.57836800  1
  S  S20  1  0.99613400  0.97509100  0.36767400  1
  S  S21  1  0.49613400  0.02490900  0.13232600  1
  S  S22  1  0.00386600  0.02490900  0.63232600  1
  S  S23  1  0.50386600  0.97509100  0.86767400  1
  S  S24  1  0.67896100  0.58431600  0.28275500  1
  S  S25  1  0.17896100  0.41568400  0.21724500  1
  S  S26  1  0.32103900  0.41568400  0.71724500  1
  S  S27  1  0.82103900  0.58431600  0.78275500  1
