# generated using pymatgen
data_AcMg5
_symmetry_space_group_name_H-M   'P 1'
_cell_length_a   6.16386107
_cell_length_b   6.16386107
_cell_length_c   5.00177800
_cell_angle_alpha   90.00000000
_cell_angle_beta   90.00000000
_cell_angle_gamma   119.99998998
_symmetry_Int_Tables_number   1
_chemical_formula_structural   AcMg5
_chemical_formula_sum   'Ac1 Mg5'
_cell_volume   164.57382759
_cell_formula_units_Z   1
loop_
 _symmetry_equiv_pos_site_id
 _symmetry_equiv_pos_as_xyz
  1  'x, y, z'
loop_
 _atom_site_type_symbol
 _atom_site_label
 _atom_site_symmetry_multiplicity
 _atom_site_fract_x
 _atom_site_fract_y
 _atom_site_fract_z
 _atom_site_occupancy
  Ac  Ac0  1  0.00000000  0.00000000  0.50000000  1
  Mg  Mg1  1  0.00000000  0.51263000  0.00000000  1
  Mg  Mg2  1  0.33333300  0.66666700  0.50000000  1
  Mg  Mg3  1  0.51263000  0.00000000  0.00000000  1
  Mg  Mg4  1  0.66666700  0.33333300  0.50000000  1
  Mg  Mg5  1  0.48737000  0.48737000  0.00000000  1
