# generated using pymatgen
data_PrSiRu
_symmetry_space_group_name_H-M   'P 1'
_cell_length_a   4.23497800
_cell_length_b   4.23497800
_cell_length_c   7.08094200
_cell_angle_alpha   90.00000000
_cell_angle_beta   90.00000000
_cell_angle_gamma   90.00000000
_symmetry_Int_Tables_number   1
_chemical_formula_structural   PrSiRu
_chemical_formula_sum   'Pr2 Si2 Ru2'
_cell_volume   126.99696852
_cell_formula_units_Z   2
loop_
 _symmetry_equiv_pos_site_id
 _symmetry_equiv_pos_as_xyz
  1  'x, y, z'
loop_
 _atom_site_type_symbol
 _atom_site_label
 _atom_site_symmetry_multiplicity
 _atom_site_fract_x
 _atom_site_fract_y
 _atom_site_fract_z
 _atom_site_occupancy
  Pr  Pr0  1  0.50000000  0.00000000  0.67991300  1
  Pr  Pr1  1  0.00000000  0.50000000  0.32008700  1
  Si  Si2  1  0.50000000  0.00000000  0.16986600  1
  Si  Si3  1  0.00000000  0.50000000  0.83013400  1
  Ru  Ru4  1  0.00000000  0.00000000  0.00000000  1
  Ru  Ru5  1  0.50000000  0.50000000  0.00000000  1
