# generated using pymatgen
data_K2Sn2O3
_symmetry_space_group_name_H-M   'P 1'
_cell_length_a   7.37352735
_cell_length_b   7.37352735
_cell_length_c   7.37352735
_cell_angle_alpha   109.47122063
_cell_angle_beta   109.47122063
_cell_angle_gamma   109.47122063
_symmetry_Int_Tables_number   1
_chemical_formula_structural   K2Sn2O3
_chemical_formula_sum   'K4 Sn4 O6'
_cell_volume   308.60573714
_cell_formula_units_Z   2
loop_
 _symmetry_equiv_pos_site_id
 _symmetry_equiv_pos_as_xyz
  1  'x, y, z'
loop_
 _atom_site_type_symbol
 _atom_site_label
 _atom_site_symmetry_multiplicity
 _atom_site_fract_x
 _atom_site_fract_y
 _atom_site_fract_z
 _atom_site_occupancy
  K  K0  1  0.50000000  0.00000000  0.48190000  1
  K  K1  1  0.01810000  0.01810000  0.01810000  1
  K  K2  1  0.48190000  0.50000000  0.00000000  1
  K  K3  1  0.00000000  0.48190000  0.50000000  1
  Sn  Sn4  1  0.00000000  0.01162300  0.50000000  1
  Sn  Sn5  1  0.01162300  0.50000000  0.00000000  1
  Sn  Sn6  1  0.48837700  0.48837700  0.48837700  1
  Sn  Sn7  1  0.50000000  0.00000000  0.01162300  1
  O  O8  1  0.97927300  0.22927300  0.75000000  1
  O  O9  1  0.52072700  0.27072700  0.25000000  1
  O  O10  1  0.22927300  0.75000000  0.97927300  1
  O  O11  1  0.75000000  0.97927300  0.22927300  1
  O  O12  1  0.25000000  0.52072700  0.27072700  1
  O  O13  1  0.27072700  0.25000000  0.52072700  1
