# generated using pymatgen
data_Ba3In(BO3)3
_symmetry_space_group_name_H-M   'P 1'
_cell_length_a   8.12329370
_cell_length_b   8.12329370
_cell_length_c   8.12329359
_cell_angle_alpha   105.81140391
_cell_angle_beta   105.81140391
_cell_angle_gamma   105.81140120
_symmetry_Int_Tables_number   1
_chemical_formula_structural   Ba3In(BO3)3
_chemical_formula_sum   'Ba6 In2 B6 O18'
_cell_volume   460.12653177
_cell_formula_units_Z   2
loop_
 _symmetry_equiv_pos_site_id
 _symmetry_equiv_pos_as_xyz
  1  'x, y, z'
loop_
 _atom_site_type_symbol
 _atom_site_label
 _atom_site_symmetry_multiplicity
 _atom_site_fract_x
 _atom_site_fract_y
 _atom_site_fract_z
 _atom_site_occupancy
  Ba  Ba0  1  0.15610300  0.66496900  0.76270300  1
  Ba  Ba1  1  0.76270300  0.15610300  0.66496900  1
  Ba  Ba2  1  0.66496900  0.76270300  0.15610300  1
  Ba  Ba3  1  0.84389700  0.33503100  0.23729700  1
  Ba  Ba4  1  0.23729700  0.84389700  0.33503100  1
  Ba  Ba5  1  0.33503100  0.23729700  0.84389700  1
  In  In6  1  0.00000000  0.00000000  0.00000000  1
  In  In7  1  0.50000000  0.50000000  0.50000000  1
  B  B8  1  0.13495900  0.20800100  0.45044000  1
  B  B9  1  0.45044000  0.13495900  0.20800100  1
  B  B10  1  0.20800100  0.45044000  0.13495900  1
  B  B11  1  0.86504100  0.79199900  0.54956000  1
  B  B12  1  0.54956000  0.86504100  0.79199900  1
  B  B13  1  0.79199900  0.54956000  0.86504100  1
  O  O14  1  0.32302500  0.23650100  0.50171900  1
  O  O15  1  0.50171900  0.32302500  0.23650100  1
  O  O16  1  0.23650100  0.50171900  0.32302500  1
  O  O17  1  0.67697500  0.76349900  0.49828100  1
  O  O18  1  0.49828100  0.67697500  0.76349900  1
  O  O19  1  0.76349900  0.49828100  0.67697500  1
  O  O20  1  0.06997400  0.30072800  0.57165100  1
  O  O21  1  0.57165100  0.06997400  0.30072800  1
  O  O22  1  0.30072800  0.57165100  0.06997400  1
  O  O23  1  0.93002600  0.69927200  0.42834900  1
  O  O24  1  0.42834900  0.93002600  0.69927200  1
  O  O25  1  0.69927200  0.42834900  0.93002600  1
  O  O26  1  0.00772600  0.06849500  0.28219800  1
  O  O27  1  0.28219800  0.00772600  0.06849500  1
  O  O28  1  0.06849500  0.28219800  0.00772600  1
  O  O29  1  0.99227400  0.93150500  0.71780200  1
  O  O30  1  0.71780200  0.99227400  0.93150500  1
  O  O31  1  0.93150500  0.71780200  0.99227400  1
