# generated using pymatgen
data_Rb2MnTe2
_symmetry_space_group_name_H-M   'P 1'
_cell_length_a   9.09730145
_cell_length_b   9.09730145
_cell_length_c   9.09730145
_cell_angle_alpha   133.67310725
_cell_angle_beta   129.65684122
_cell_angle_gamma   70.80822504
_symmetry_Int_Tables_number   1
_chemical_formula_structural   Rb2MnTe2
_chemical_formula_sum   'Rb4 Mn2 Te4'
_cell_volume   410.68883416
_cell_formula_units_Z   2
loop_
 _symmetry_equiv_pos_site_id
 _symmetry_equiv_pos_as_xyz
  1  'x, y, z'
loop_
 _atom_site_type_symbol
 _atom_site_label
 _atom_site_symmetry_multiplicity
 _atom_site_fract_x
 _atom_site_fract_y
 _atom_site_fract_z
 _atom_site_occupancy
  Rb  Rb0  1  0.46768000  0.14366300  0.32401700  1
  Rb  Rb1  1  0.81964600  0.64366300  0.17598300  1
  Rb  Rb2  1  0.53232000  0.85633700  0.67598300  1
  Rb  Rb3  1  0.18035400  0.35633700  0.82401700  1
  Mn  Mn4  1  0.00000000  0.75000000  0.75000000  1
  Mn  Mn5  1  0.00000000  0.25000000  0.25000000  1
  Te  Te6  1  0.08501700  0.89650400  0.18851400  1
  Te  Te7  1  0.91498300  0.10349600  0.81148600  1
  Te  Te8  1  0.29201000  0.60349600  0.68851400  1
  Te  Te9  1  0.70799000  0.39650400  0.31148600  1
