# generated using pymatgen
data_InBF4
_symmetry_space_group_name_H-M   'P 1'
_cell_length_a   5.79284200
_cell_length_b   7.44689500
_cell_length_c   9.23172200
_cell_angle_alpha   90.00000000
_cell_angle_beta   90.00000000
_cell_angle_gamma   90.00000000
_symmetry_Int_Tables_number   1
_chemical_formula_structural   InBF4
_chemical_formula_sum   'In4 B4 F16'
_cell_volume   398.24435776
_cell_formula_units_Z   4
loop_
 _symmetry_equiv_pos_site_id
 _symmetry_equiv_pos_as_xyz
  1  'x, y, z'
loop_
 _atom_site_type_symbol
 _atom_site_label
 _atom_site_symmetry_multiplicity
 _atom_site_fract_x
 _atom_site_fract_y
 _atom_site_fract_z
 _atom_site_occupancy
  In  In0  1  0.25000000  0.33226900  0.68599500  1
  In  In1  1  0.75000000  0.66773100  0.31400500  1
  In  In2  1  0.75000000  0.83226900  0.81400500  1
  In  In3  1  0.25000000  0.16773100  0.18599500  1
  B  B4  1  0.25000000  0.68816400  0.06204800  1
  B  B5  1  0.25000000  0.81183600  0.56204800  1
  B  B6  1  0.75000000  0.18816400  0.43795200  1
  B  B7  1  0.75000000  0.31183600  0.93795200  1
  F  F8  1  0.54977400  0.29909800  0.42314800  1
  F  F9  1  0.95022600  0.20090200  0.92314800  1
  F  F10  1  0.45022600  0.79909800  0.07685200  1
  F  F11  1  0.04977400  0.70090200  0.57685200  1
  F  F12  1  0.25000000  0.55807900  0.17425500  1
  F  F13  1  0.75000000  0.44192100  0.82574500  1
  F  F14  1  0.75000000  0.05807900  0.32574500  1
  F  F15  1  0.25000000  0.94192100  0.67425500  1
  F  F16  1  0.25000000  0.60621700  0.92484200  1
  F  F17  1  0.75000000  0.39378300  0.07515800  1
  F  F18  1  0.75000000  0.10621700  0.57515800  1
  F  F19  1  0.25000000  0.89378300  0.42484200  1
  F  F20  1  0.04977400  0.79909800  0.07685200  1
  F  F21  1  0.54977400  0.20090200  0.92314800  1
  F  F22  1  0.95022600  0.29909800  0.42314800  1
  F  F23  1  0.45022600  0.70090200  0.57685200  1
