# generated using pymatgen
data_SrSn(PO4)2
_symmetry_space_group_name_H-M   'P 1'
_cell_length_a   8.85158647
_cell_length_b   8.85158647
_cell_length_c   8.15698031
_cell_angle_alpha   65.82260961
_cell_angle_beta   65.82260961
_cell_angle_gamma   34.90732242
_symmetry_Int_Tables_number   1
_chemical_formula_structural   SrSn(PO4)2
_chemical_formula_sum   'Sr2 Sn2 P4 O16'
_cell_volume   330.30630577
_cell_formula_units_Z   2
loop_
 _symmetry_equiv_pos_site_id
 _symmetry_equiv_pos_as_xyz
  1  'x, y, z'
loop_
 _atom_site_type_symbol
 _atom_site_label
 _atom_site_symmetry_multiplicity
 _atom_site_fract_x
 _atom_site_fract_y
 _atom_site_fract_z
 _atom_site_occupancy
  Sr  Sr0  1  0.21990700  0.78009300  0.25000000  1
  Sr  Sr1  1  0.78009300  0.21990700  0.75000000  1
  Sn  Sn2  1  0.50000000  0.00000000  0.00000000  1
  Sn  Sn3  1  0.00000000  0.50000000  0.50000000  1
  P  P4  1  0.88842100  0.39360000  0.24107300  1
  P  P5  1  0.60640000  0.11157900  0.25892700  1
  P  P6  1  0.11157900  0.60640000  0.75892700  1
  P  P7  1  0.39360000  0.88842100  0.74107300  1
  O  O8  1  0.96622200  0.47741700  0.28236500  1
  O  O9  1  0.52258300  0.03377800  0.21763500  1
  O  O10  1  0.03377800  0.52258300  0.71763500  1
  O  O11  1  0.47741700  0.96622200  0.78236500  1
  O  O12  1  0.81542800  0.28608600  0.39946400  1
  O  O13  1  0.71391400  0.18457200  0.10053600  1
  O  O14  1  0.18457200  0.71391400  0.60053600  1
  O  O15  1  0.28608600  0.81542800  0.89946400  1
  O  O16  1  0.64463100  0.64617400  0.13159500  1
  O  O17  1  0.35382600  0.35536900  0.36840500  1
  O  O18  1  0.35536900  0.35382600  0.86840500  1
  O  O19  1  0.64617400  0.64463100  0.63159500  1
  O  O20  1  0.13451400  0.16814400  0.11611400  1
  O  O21  1  0.83185600  0.86548600  0.38388600  1
  O  O22  1  0.86548600  0.83185600  0.88388600  1
  O  O23  1  0.16814400  0.13451400  0.61611400  1
