# generated using pymatgen
data_Mg3Tl
_symmetry_space_group_name_H-M   'P 1'
_cell_length_a   6.41437278
_cell_length_b   6.41437278
_cell_length_c   5.25598400
_cell_angle_alpha   90.00000000
_cell_angle_beta   90.00000000
_cell_angle_gamma   120.00000803
_symmetry_Int_Tables_number   1
_chemical_formula_structural   Mg3Tl
_chemical_formula_sum   'Mg6 Tl2'
_cell_volume   187.28069946
_cell_formula_units_Z   2
loop_
 _symmetry_equiv_pos_site_id
 _symmetry_equiv_pos_as_xyz
  1  'x, y, z'
loop_
 _atom_site_type_symbol
 _atom_site_label
 _atom_site_symmetry_multiplicity
 _atom_site_fract_x
 _atom_site_fract_y
 _atom_site_fract_z
 _atom_site_occupancy
  Mg  Mg0  1  0.16494800  0.32989700  0.25000000  1
  Mg  Mg1  1  0.16494800  0.83505200  0.25000000  1
  Mg  Mg2  1  0.67010300  0.83505200  0.25000000  1
  Mg  Mg3  1  0.32989700  0.16494800  0.75000000  1
  Mg  Mg4  1  0.83505200  0.16494800  0.75000000  1
  Mg  Mg5  1  0.83505200  0.67010300  0.75000000  1
  Tl  Tl6  1  0.66666700  0.33333300  0.25000000  1
  Tl  Tl7  1  0.33333300  0.66666700  0.75000000  1
