# generated using pymatgen
data_BaZrF6
_symmetry_space_group_name_H-M   'P 1'
_cell_length_a   6.95830309
_cell_length_b   6.95830309
_cell_length_c   5.61354300
_cell_angle_alpha   90.00000000
_cell_angle_beta   90.00000000
_cell_angle_gamma   111.99703437
_symmetry_Int_Tables_number   1
_chemical_formula_structural   BaZrF6
_chemical_formula_sum   'Ba2 Zr2 F12'
_cell_volume   252.01052505
_cell_formula_units_Z   2
loop_
 _symmetry_equiv_pos_site_id
 _symmetry_equiv_pos_as_xyz
  1  'x, y, z'
loop_
 _atom_site_type_symbol
 _atom_site_label
 _atom_site_symmetry_multiplicity
 _atom_site_fract_x
 _atom_site_fract_y
 _atom_site_fract_z
 _atom_site_occupancy
  Ba  Ba0  1  0.25000000  0.75000000  0.55559800  1
  Ba  Ba1  1  0.75000000  0.25000000  0.44440200  1
  Zr  Zr2  1  0.75000000  0.75000000  0.00000000  1
  Zr  Zr3  1  0.25000000  0.25000000  0.00000000  1
  F  F4  1  0.18132700  0.43194000  0.25046600  1
  F  F5  1  0.31867300  0.06806000  0.25046600  1
  F  F6  1  0.43194000  0.18132700  0.74953400  1
  F  F7  1  0.06806000  0.31867300  0.74953400  1
  F  F8  1  0.57010300  0.42989700  0.14993000  1
  F  F9  1  0.92989700  0.07010300  0.14993000  1
  F  F10  1  0.42989700  0.57010300  0.85007000  1
  F  F11  1  0.07010300  0.92989700  0.85007000  1
  F  F12  1  0.93194000  0.68132700  0.25046600  1
  F  F13  1  0.56806000  0.81867300  0.25046600  1
  F  F14  1  0.68132700  0.93194000  0.74953400  1
  F  F15  1  0.81867300  0.56806000  0.74953400  1
