# generated using pymatgen
data_Na6ZnS4
_symmetry_space_group_name_H-M   'P 1'
_cell_length_a   8.98132782
_cell_length_b   8.98132782
_cell_length_c   6.94182900
_cell_angle_alpha   90.00000000
_cell_angle_beta   90.00000000
_cell_angle_gamma   119.99999867
_symmetry_Int_Tables_number   1
_chemical_formula_structural   Na6ZnS4
_chemical_formula_sum   'Na12 Zn2 S8'
_cell_volume   484.93736228
_cell_formula_units_Z   2
loop_
 _symmetry_equiv_pos_site_id
 _symmetry_equiv_pos_as_xyz
  1  'x, y, z'
loop_
 _atom_site_type_symbol
 _atom_site_label
 _atom_site_symmetry_multiplicity
 _atom_site_fract_x
 _atom_site_fract_y
 _atom_site_fract_z
 _atom_site_occupancy
  Na  Na0  1  0.14793300  0.85206700  0.53804600  1
  Na  Na1  1  0.29586600  0.14793300  0.03804600  1
  Na  Na2  1  0.85206700  0.70413400  0.03804600  1
  Na  Na3  1  0.14793300  0.29586600  0.53804600  1
  Na  Na4  1  0.70413400  0.85206700  0.53804600  1
  Na  Na5  1  0.85206700  0.14793300  0.03804600  1
  Na  Na6  1  0.53127800  0.46872200  0.36588200  1
  Na  Na7  1  0.06255700  0.53127800  0.86588200  1
  Na  Na8  1  0.46872200  0.93744300  0.86588200  1
  Na  Na9  1  0.53127800  0.06255700  0.36588200  1
  Na  Na10  1  0.93744300  0.46872200  0.36588200  1
  Na  Na11  1  0.46872200  0.53127800  0.86588200  1
  Zn  Zn12  1  0.66666700  0.33333300  0.74864100  1
  Zn  Zn13  1  0.33333300  0.66666700  0.24864100  1
  S  S14  1  0.81224700  0.18775300  0.64189500  1
  S  S15  1  0.62449500  0.81224700  0.14189500  1
  S  S16  1  0.33333300  0.66666700  0.59338800  1
  S  S17  1  0.66666700  0.33333300  0.09338800  1
  S  S18  1  0.18775300  0.81224700  0.14189500  1
  S  S19  1  0.37550500  0.18775300  0.64189500  1
  S  S20  1  0.81224700  0.62449500  0.64189500  1
  S  S21  1  0.18775300  0.37550500  0.14189500  1
