# generated using pymatgen
data_Mn2NbAl
_symmetry_space_group_name_H-M   'P 1'
_cell_length_a   4.25531063
_cell_length_b   4.25531063
_cell_length_c   4.25531063
_cell_angle_alpha   60.00000000
_cell_angle_beta   60.00000000
_cell_angle_gamma   60.00000000
_symmetry_Int_Tables_number   1
_chemical_formula_structural   Mn2NbAl
_chemical_formula_sum   'Mn2 Nb1 Al1'
_cell_volume   54.48523218
_cell_formula_units_Z   1
loop_
 _symmetry_equiv_pos_site_id
 _symmetry_equiv_pos_as_xyz
  1  'x, y, z'
loop_
 _atom_site_type_symbol
 _atom_site_label
 _atom_site_symmetry_multiplicity
 _atom_site_fract_x
 _atom_site_fract_y
 _atom_site_fract_z
 _atom_site_occupancy
  Mn  Mn0  1  0.00000000  0.00000000  0.00000000  1
  Mn  Mn1  1  0.49999900  0.49999900  0.49999900  1
  Nb  Nb2  1  0.75000000  0.75000000  0.75000000  1
  Al  Al3  1  0.25000100  0.25000100  0.25000100  1
