# generated using pymatgen
data_Rb2MnSe2
_symmetry_space_group_name_H-M   'P 1'
_cell_length_a   8.55043202
_cell_length_b   8.55043202
_cell_length_c   8.55043202
_cell_angle_alpha   133.84243693
_cell_angle_beta   128.89741900
_cell_angle_gamma   71.30044913
_symmetry_Int_Tables_number   1
_chemical_formula_structural   Rb2MnSe2
_chemical_formula_sum   'Rb4 Mn2 Se4'
_cell_volume   343.53924876
_cell_formula_units_Z   2
loop_
 _symmetry_equiv_pos_site_id
 _symmetry_equiv_pos_as_xyz
  1  'x, y, z'
loop_
 _atom_site_type_symbol
 _atom_site_label
 _atom_site_symmetry_multiplicity
 _atom_site_fract_x
 _atom_site_fract_y
 _atom_site_fract_z
 _atom_site_occupancy
  Rb  Rb0  1  0.81367500  0.64627500  0.16740000  1
  Rb  Rb1  1  0.18632500  0.35372500  0.83260000  1
  Rb  Rb2  1  0.52112500  0.85372500  0.66740000  1
  Rb  Rb3  1  0.47887500  0.14627500  0.33260000  1
  Mn  Mn4  1  0.00000000  0.75000000  0.75000000  1
  Mn  Mn5  1  0.00000000  0.25000000  0.25000000  1
  Se  Se6  1  0.28639200  0.60088500  0.68550700  1
  Se  Se7  1  0.08462200  0.89911500  0.18550700  1
  Se  Se8  1  0.91537800  0.10088500  0.81449300  1
  Se  Se9  1  0.71360800  0.39911500  0.31449300  1
