# generated using pymatgen
data_TlInS2
_symmetry_space_group_name_H-M   'P 1'
_cell_length_a   7.88644734
_cell_length_b   7.88644734
_cell_length_c   15.37830250
_cell_angle_alpha   82.55554087
_cell_angle_beta   82.55554087
_cell_angle_gamma   90.06480061
_symmetry_Int_Tables_number   1
_chemical_formula_structural   TlInS2
_chemical_formula_sum   'Tl8 In8 S16'
_cell_volume   940.25716499
_cell_formula_units_Z   8
loop_
 _symmetry_equiv_pos_site_id
 _symmetry_equiv_pos_as_xyz
  1  'x, y, z'
loop_
 _atom_site_type_symbol
 _atom_site_label
 _atom_site_symmetry_multiplicity
 _atom_site_fract_x
 _atom_site_fract_y
 _atom_site_fract_z
 _atom_site_occupancy
  Tl  Tl0  1  0.65587700  0.77262300  0.38050000  1
  Tl  Tl1  1  0.22737700  0.34412300  0.11950000  1
  Tl  Tl2  1  0.34412300  0.22737700  0.61950000  1
  Tl  Tl3  1  0.77262300  0.65587700  0.88050000  1
  Tl  Tl4  1  0.21852100  0.84355000  0.11712000  1
  Tl  Tl5  1  0.15645000  0.78147900  0.38288000  1
  Tl  Tl6  1  0.78147900  0.15645000  0.88288000  1
  Tl  Tl7  1  0.84355000  0.21852100  0.61712000  1
  In  In8  1  0.71147600  0.08885400  0.15504300  1
  In  In9  1  0.91114600  0.28852400  0.34495700  1
  In  In10  1  0.28852400  0.91114600  0.84495700  1
  In  In11  1  0.08885400  0.71147600  0.65504300  1
  In  In12  1  0.41239600  0.28805200  0.34510300  1
  In  In13  1  0.71194800  0.58760400  0.15489700  1
  In  In14  1  0.58760400  0.71194800  0.65489700  1
  In  In15  1  0.28805200  0.41239600  0.84510300  1
  S  S16  1  0.42631300  0.05221700  0.24958300  1
  S  S17  1  0.94778300  0.57368700  0.25041700  1
  S  S18  1  0.57368700  0.94778300  0.75041700  1
  S  S19  1  0.05221700  0.42631300  0.74958300  1
  S  S20  1  0.42671800  0.57328200  0.25000000  1
  S  S21  1  0.57328200  0.42671800  0.75000000  1
  S  S22  1  0.94764300  0.05235700  0.25000000  1
  S  S23  1  0.05235700  0.94764300  0.75000000  1
  S  S24  1  0.63664300  0.26679700  0.44471800  1
  S  S25  1  0.73320300  0.36335700  0.05528200  1
  S  S26  1  0.36335700  0.73320300  0.55528200  1
  S  S27  1  0.26679700  0.63664300  0.94471800  1
  S  S28  1  0.73847000  0.86338400  0.05548900  1
  S  S29  1  0.13661600  0.26153000  0.44451100  1
  S  S30  1  0.26153000  0.13661600  0.94451100  1
  S  S31  1  0.86338400  0.73847000  0.55548900  1
