# generated using pymatgen
data_Sr4Al6SO12
_symmetry_space_group_name_H-M   'P 1'
_cell_length_a   8.09501311
_cell_length_b   8.09501311
_cell_length_c   8.09501311
_cell_angle_alpha   109.47122063
_cell_angle_beta   109.47122063
_cell_angle_gamma   109.47122063
_symmetry_Int_Tables_number   1
_chemical_formula_structural   Sr4Al6SO12
_chemical_formula_sum   'Sr4 Al6 S1 O12'
_cell_volume   408.34832554
_cell_formula_units_Z   1
loop_
 _symmetry_equiv_pos_site_id
 _symmetry_equiv_pos_as_xyz
  1  'x, y, z'
loop_
 _atom_site_type_symbol
 _atom_site_label
 _atom_site_symmetry_multiplicity
 _atom_site_fract_x
 _atom_site_fract_y
 _atom_site_fract_z
 _atom_site_occupancy
  Sr  Sr0  1  0.00000000  0.36583200  0.00000000  1
  Sr  Sr1  1  0.36583200  0.00000000  0.00000000  1
  Sr  Sr2  1  0.63416800  0.63416800  0.63416800  1
  Sr  Sr3  1  0.00000000  0.00000000  0.36583200  1
  Al  Al4  1  0.25000000  0.50000000  0.75000000  1
  Al  Al5  1  0.75000000  0.50000000  0.25000000  1
  Al  Al6  1  0.25000000  0.75000000  0.50000000  1
  Al  Al7  1  0.75000000  0.25000000  0.50000000  1
  Al  Al8  1  0.50000000  0.25000000  0.75000000  1
  Al  Al9  1  0.50000000  0.75000000  0.25000000  1
  S  S10  1  0.00000000  0.00000000  0.00000000  1
  O  O11  1  0.00000000  0.59589800  0.29350100  1
  O  O12  1  0.40410200  0.40410200  0.69760300  1
  O  O13  1  0.00000000  0.29350100  0.59589800  1
  O  O14  1  0.29350100  0.00000000  0.59589800  1
  O  O15  1  0.70649900  0.30239700  0.70649900  1
  O  O16  1  0.30239700  0.70649900  0.70649900  1
  O  O17  1  0.70649900  0.70649900  0.30239700  1
  O  O18  1  0.59589800  0.29350100  0.00000000  1
  O  O19  1  0.29350100  0.59589800  0.00000000  1
  O  O20  1  0.40410200  0.69760300  0.40410200  1
  O  O21  1  0.59589800  0.00000000  0.29350100  1
  O  O22  1  0.69760300  0.40410200  0.40410200  1
