# generated using pymatgen
data_K5Ti3F14
_symmetry_space_group_name_H-M   'P 1'
_cell_length_a   7.93740100
_cell_length_b   7.93740100
_cell_length_c   11.81955300
_cell_angle_alpha   90.00000000
_cell_angle_beta   90.00000000
_cell_angle_gamma   90.00000000
_symmetry_Int_Tables_number   1
_chemical_formula_structural   K5Ti3F14
_chemical_formula_sum   'K10 Ti6 F28'
_cell_volume   744.65943334
_cell_formula_units_Z   2
loop_
 _symmetry_equiv_pos_site_id
 _symmetry_equiv_pos_as_xyz
  1  'x, y, z'
loop_
 _atom_site_type_symbol
 _atom_site_label
 _atom_site_symmetry_multiplicity
 _atom_site_fract_x
 _atom_site_fract_y
 _atom_site_fract_z
 _atom_site_occupancy
  K  K0  1  0.27020100  0.77020100  0.75000000  1
  K  K1  1  0.22979900  0.27020100  0.75000000  1
  K  K2  1  0.77020100  0.72979900  0.75000000  1
  K  K3  1  0.72979900  0.22979900  0.75000000  1
  K  K4  1  0.72979900  0.22979900  0.25000000  1
  K  K5  1  0.77020100  0.72979900  0.25000000  1
  K  K6  1  0.22979900  0.27020100  0.25000000  1
  K  K7  1  0.27020100  0.77020100  0.25000000  1
  K  K8  1  0.50000000  0.50000000  0.00000000  1
  K  K9  1  0.00000000  0.00000000  0.50000000  1
  Ti  Ti10  1  0.00000000  0.50000000  0.50000000  1
  Ti  Ti11  1  0.50000000  0.00000000  0.50000000  1
  Ti  Ti12  1  0.50000000  0.00000000  0.00000000  1
  Ti  Ti13  1  0.00000000  0.50000000  0.00000000  1
  Ti  Ti14  1  0.50000000  0.50000000  0.50000000  1
  Ti  Ti15  1  0.00000000  0.00000000  0.00000000  1
  F  F16  1  0.02576200  0.67949200  0.61408700  1
  F  F17  1  0.97423800  0.32050800  0.61408700  1
  F  F18  1  0.17949200  0.52576200  0.88591300  1
  F  F19  1  0.67949200  0.97423800  0.61408700  1
  F  F20  1  0.32050800  0.02576200  0.61408700  1
  F  F21  1  0.47423800  0.17949200  0.88591300  1
  F  F22  1  0.52576200  0.82050800  0.88591300  1
  F  F23  1  0.82050800  0.47423800  0.88591300  1
  F  F24  1  0.97423800  0.32050800  0.38591300  1
  F  F25  1  0.02576200  0.67949200  0.38591300  1
  F  F26  1  0.82050800  0.47423800  0.11408700  1
  F  F27  1  0.32050800  0.02576200  0.38591300  1
  F  F28  1  0.67949200  0.97423800  0.38591300  1
  F  F29  1  0.52576200  0.82050800  0.11408700  1
  F  F30  1  0.47423800  0.17949200  0.11408700  1
  F  F31  1  0.17949200  0.52576200  0.11408700  1
  F  F32  1  0.00000000  0.00000000  0.16793700  1
  F  F33  1  0.50000000  0.50000000  0.33206300  1
  F  F34  1  0.00000000  0.00000000  0.83206300  1
  F  F35  1  0.50000000  0.50000000  0.66793700  1
  F  F36  1  0.04027100  0.24956600  0.00000000  1
  F  F37  1  0.75043400  0.04027100  0.00000000  1
  F  F38  1  0.24956600  0.95972900  0.00000000  1
  F  F39  1  0.54027100  0.25043400  0.50000000  1
  F  F40  1  0.45972900  0.74956600  0.50000000  1
  F  F41  1  0.95972900  0.75043400  0.00000000  1
  F  F42  1  0.74956600  0.54027100  0.50000000  1
  F  F43  1  0.25043400  0.45972900  0.50000000  1
