# generated using pymatgen
data_ThSO
_symmetry_space_group_name_H-M   'P 1'
_cell_length_a   3.97997700
_cell_length_b   3.97997700
_cell_length_c   6.78733100
_cell_angle_alpha   90.00000000
_cell_angle_beta   90.00000000
_cell_angle_gamma   90.00000000
_symmetry_Int_Tables_number   1
_chemical_formula_structural   ThSO
_chemical_formula_sum   'Th2 S2 O2'
_cell_volume   107.51279535
_cell_formula_units_Z   2
loop_
 _symmetry_equiv_pos_site_id
 _symmetry_equiv_pos_as_xyz
  1  'x, y, z'
loop_
 _atom_site_type_symbol
 _atom_site_label
 _atom_site_symmetry_multiplicity
 _atom_site_fract_x
 _atom_site_fract_y
 _atom_site_fract_z
 _atom_site_occupancy
  Th  Th0  1  0.50000000  0.00000000  0.79989500  1
  Th  Th1  1  0.00000000  0.50000000  0.20010500  1
  S  S2  1  0.00000000  0.50000000  0.63797900  1
  S  S3  1  0.50000000  0.00000000  0.36202100  1
  O  O4  1  0.00000000  0.00000000  0.00000000  1
  O  O5  1  0.50000000  0.50000000  0.00000000  1
