# generated using pymatgen
data_Lu4Ni13C4
_symmetry_space_group_name_H-M   'P 1'
_cell_length_a   8.28439864
_cell_length_b   8.28439864
_cell_length_c   3.80545400
_cell_angle_alpha   90.00000000
_cell_angle_beta   90.00000000
_cell_angle_gamma   91.32644995
_symmetry_Int_Tables_number   1
_chemical_formula_structural   Lu4Ni13C4
_chemical_formula_sum   'Lu4 Ni13 C4'
_cell_volume   261.10311903
_cell_formula_units_Z   1
loop_
 _symmetry_equiv_pos_site_id
 _symmetry_equiv_pos_as_xyz
  1  'x, y, z'
loop_
 _atom_site_type_symbol
 _atom_site_label
 _atom_site_symmetry_multiplicity
 _atom_site_fract_x
 _atom_site_fract_y
 _atom_site_fract_z
 _atom_site_occupancy
  Lu  Lu0  1  0.31392300  0.68607700  0.00000000  1
  Lu  Lu1  1  0.68607700  0.31392300  0.00000000  1
  Lu  Lu2  1  0.84839500  0.84839500  0.00000000  1
  Lu  Lu3  1  0.15160500  0.15160500  0.00000000  1
  Ni  Ni4  1  0.50000000  0.50000000  0.50000000  1
  Ni  Ni5  1  0.71581000  0.07039200  0.50000000  1
  Ni  Ni6  1  0.28419000  0.92960800  0.50000000  1
  Ni  Ni7  1  0.92960800  0.28419000  0.50000000  1
  Ni  Ni8  1  0.07039200  0.71581000  0.50000000  1
  Ni  Ni9  1  0.50000000  0.00000000  0.00000000  1
  Ni  Ni10  1  0.00000000  0.50000000  0.00000000  1
  Ni  Ni11  1  0.57492700  0.79139100  0.50000000  1
  Ni  Ni12  1  0.42507300  0.20860900  0.50000000  1
  Ni  Ni13  1  0.20860900  0.42507300  0.50000000  1
  Ni  Ni14  1  0.79139100  0.57492700  0.50000000  1
  Ni  Ni15  1  0.62406600  0.62406600  0.00000000  1
  Ni  Ni16  1  0.37593400  0.37593400  0.00000000  1
  C  C17  1  0.50000000  0.00000000  0.50000000  1
  C  C18  1  0.00000000  0.50000000  0.50000000  1
  C  C19  1  0.94289500  0.05710500  0.50000000  1
  C  C20  1  0.05710500  0.94289500  0.50000000  1
