# generated using pymatgen
data_Er8Ga3Co
_symmetry_space_group_name_H-M   'P 1'
_cell_length_a   9.93844848
_cell_length_b   9.93844848
_cell_length_c   6.84422600
_cell_angle_alpha   90.00000000
_cell_angle_beta   90.00000000
_cell_angle_gamma   120.00000322
_symmetry_Int_Tables_number   1
_chemical_formula_structural   Er8Ga3Co
_chemical_formula_sum   'Er16 Ga6 Co2'
_cell_volume   585.45314195
_cell_formula_units_Z   2
loop_
 _symmetry_equiv_pos_site_id
 _symmetry_equiv_pos_as_xyz
  1  'x, y, z'
loop_
 _atom_site_type_symbol
 _atom_site_label
 _atom_site_symmetry_multiplicity
 _atom_site_fract_x
 _atom_site_fract_y
 _atom_site_fract_z
 _atom_site_occupancy
  Er  Er0  1  0.00000000  0.00000000  0.27010800  1
  Er  Er1  1  0.00000000  0.00000000  0.77010800  1
  Er  Er2  1  0.17307400  0.82692600  0.99193000  1
  Er  Er3  1  0.82692600  0.17307400  0.49193000  1
  Er  Er4  1  0.17307400  0.34614800  0.99193000  1
  Er  Er5  1  0.65385200  0.82692600  0.99193000  1
  Er  Er6  1  0.34614800  0.17307400  0.49193000  1
  Er  Er7  1  0.82692600  0.65385200  0.49193000  1
  Er  Er8  1  0.33333300  0.66666700  0.67180300  1
  Er  Er9  1  0.66666700  0.33333300  0.17180300  1
  Er  Er10  1  0.46461000  0.53539000  0.29258600  1
  Er  Er11  1  0.53539000  0.46461000  0.79258600  1
  Er  Er12  1  0.46461000  0.92922100  0.29258600  1
  Er  Er13  1  0.07077900  0.53539000  0.29258600  1
  Er  Er14  1  0.92922100  0.46461000  0.79258600  1
  Er  Er15  1  0.53539000  0.07077900  0.79258600  1
  Ga  Ga16  1  0.16357500  0.83642500  0.53942100  1
  Ga  Ga17  1  0.83642500  0.16357500  0.03942100  1
  Ga  Ga18  1  0.16357500  0.32715000  0.53942100  1
  Ga  Ga19  1  0.67285000  0.83642500  0.53942100  1
  Ga  Ga20  1  0.32715000  0.16357500  0.03942100  1
  Ga  Ga21  1  0.83642500  0.67285000  0.03942100  1
  Co  Co22  1  0.33333300  0.66666700  0.05933700  1
  Co  Co23  1  0.66666700  0.33333300  0.55933700  1
