# generated using pymatgen
data_Er2Si5Ru3
_symmetry_space_group_name_H-M   'P 1'
_cell_length_a   8.22919476
_cell_length_b   8.22919476
_cell_length_c   8.22919476
_cell_angle_alpha   140.32900137
_cell_angle_beta   108.61685968
_cell_angle_gamma   84.89616505
_symmetry_Int_Tables_number   1
_chemical_formula_structural   Er2Si5Ru3
_chemical_formula_sum   'Er4 Si10 Ru6'
_cell_volume   325.62388926
_cell_formula_units_Z   2
loop_
 _symmetry_equiv_pos_site_id
 _symmetry_equiv_pos_as_xyz
  1  'x, y, z'
loop_
 _atom_site_type_symbol
 _atom_site_label
 _atom_site_symmetry_multiplicity
 _atom_site_fract_x
 _atom_site_fract_y
 _atom_site_fract_z
 _atom_site_occupancy
  Er  Er0  1  0.90368400  0.13599600  0.76768800  1
  Er  Er1  1  0.09631600  0.86400400  0.23231200  1
  Er  Er2  1  0.63169100  0.36400400  0.26768800  1
  Er  Er3  1  0.36830900  0.63599600  0.73231200  1
  Si  Si4  1  0.00000000  0.75000000  0.75000000  1
  Si  Si5  1  0.00000000  0.25000000  0.25000000  1
  Si  Si6  1  0.70720200  0.45720200  0.75000000  1
  Si  Si7  1  0.29279800  0.04279800  0.75000000  1
  Si  Si8  1  0.29279800  0.54279800  0.25000000  1
  Si  Si9  1  0.70720200  0.95720200  0.25000000  1
  Si  Si10  1  0.23487700  0.40490100  0.82997600  1
  Si  Si11  1  0.57492400  0.90490100  0.67002400  1
  Si  Si12  1  0.42507600  0.09509900  0.32997600  1
  Si  Si13  1  0.76512300  0.59509900  0.17002400  1
  Ru  Ru14  1  0.76106800  0.85343600  0.90763300  1
  Ru  Ru15  1  0.50000000  0.25000000  0.75000000  1
  Ru  Ru16  1  0.94580300  0.35343600  0.59236700  1
  Ru  Ru17  1  0.05419700  0.64656400  0.40763300  1
  Ru  Ru18  1  0.23893200  0.14656400  0.09236700  1
  Ru  Ru19  1  0.50000000  0.75000000  0.25000000  1
