# generated using pymatgen
data_Ba3Zr2S7
_symmetry_space_group_name_H-M   'P 1'
_cell_length_a   7.17091000
_cell_length_b   7.17091000
_cell_length_c   25.54761900
_cell_angle_alpha   90.00000000
_cell_angle_beta   90.00000000
_cell_angle_gamma   90.00000000
_symmetry_Int_Tables_number   1
_chemical_formula_structural   Ba3Zr2S7
_chemical_formula_sum   'Ba12 Zr8 S28'
_cell_volume   1313.70839266
_cell_formula_units_Z   4
loop_
 _symmetry_equiv_pos_site_id
 _symmetry_equiv_pos_as_xyz
  1  'x, y, z'
loop_
 _atom_site_type_symbol
 _atom_site_label
 _atom_site_symmetry_multiplicity
 _atom_site_fract_x
 _atom_site_fract_y
 _atom_site_fract_z
 _atom_site_occupancy
  Ba  Ba0  1  0.25479100  0.74520900  0.50000000  1
  Ba  Ba1  1  0.75479100  0.75479100  0.00000000  1
  Ba  Ba2  1  0.24520900  0.24520900  0.00000000  1
  Ba  Ba3  1  0.74520900  0.25479100  0.50000000  1
  Ba  Ba4  1  0.76531800  0.23468200  0.68111500  1
  Ba  Ba5  1  0.23468200  0.76531800  0.68111500  1
  Ba  Ba6  1  0.23468200  0.76531800  0.31888500  1
  Ba  Ba7  1  0.73468200  0.73468200  0.18111500  1
  Ba  Ba8  1  0.26531800  0.26531800  0.18111500  1
  Ba  Ba9  1  0.73468200  0.73468200  0.81888500  1
  Ba  Ba10  1  0.26531800  0.26531800  0.81888500  1
  Ba  Ba11  1  0.76531800  0.23468200  0.31888500  1
  Zr  Zr12  1  0.74906800  0.74906800  0.59989700  1
  Zr  Zr13  1  0.25093200  0.25093200  0.59989700  1
  Zr  Zr14  1  0.74906800  0.74906800  0.40010300  1
  Zr  Zr15  1  0.24906800  0.75093200  0.09989700  1
  Zr  Zr16  1  0.75093200  0.24906800  0.09989700  1
  Zr  Zr17  1  0.75093200  0.24906800  0.90010300  1
  Zr  Zr18  1  0.24906800  0.75093200  0.90010300  1
  Zr  Zr19  1  0.25093200  0.25093200  0.40010300  1
  S  S20  1  0.00000000  0.50000000  0.40426700  1
  S  S21  1  0.00000000  0.50000000  0.90426700  1
  S  S22  1  0.50000000  0.00000000  0.09573300  1
  S  S23  1  0.50000000  0.00000000  0.59573300  1
  S  S24  1  0.00000000  0.50000000  0.59573300  1
  S  S25  1  0.00000000  0.50000000  0.09573300  1
  S  S26  1  0.50000000  0.00000000  0.90426700  1
  S  S27  1  0.50000000  0.00000000  0.40426700  1
  S  S28  1  0.50000000  0.50000000  0.61271400  1
  S  S29  1  0.00000000  0.00000000  0.11271400  1
  S  S30  1  0.00000000  0.00000000  0.88728600  1
  S  S31  1  0.50000000  0.50000000  0.38728600  1
  S  S32  1  0.78600200  0.78600200  0.69791500  1
  S  S33  1  0.21399800  0.21399800  0.69791500  1
  S  S34  1  0.78600200  0.78600200  0.30208500  1
  S  S35  1  0.28600200  0.71399800  0.19791500  1
  S  S36  1  0.71399800  0.28600200  0.19791500  1
  S  S37  1  0.71399800  0.28600200  0.80208500  1
  S  S38  1  0.28600200  0.71399800  0.80208500  1
  S  S39  1  0.21399800  0.21399800  0.30208500  1
  S  S40  1  0.00000000  0.00000000  0.41817500  1
  S  S41  1  0.50000000  0.50000000  0.91817500  1
  S  S42  1  0.50000000  0.50000000  0.08182500  1
  S  S43  1  0.00000000  0.00000000  0.58182500  1
  S  S44  1  0.29398300  0.29398300  0.50000000  1
  S  S45  1  0.20601700  0.79398300  0.00000000  1
  S  S46  1  0.79398300  0.20601700  0.00000000  1
  S  S47  1  0.70601700  0.70601700  0.50000000  1
