# generated using pymatgen
data_YAsO4
_symmetry_space_group_name_H-M   'P 1'
_cell_length_a   5.98800170
_cell_length_b   5.98800170
_cell_length_c   5.98800170
_cell_angle_alpha   106.44665194
_cell_angle_beta   106.44665194
_cell_angle_gamma   115.70610343
_symmetry_Int_Tables_number   1
_chemical_formula_structural   YAsO4
_chemical_formula_sum   'Y2 As2 O8'
_cell_volume   163.79772908
_cell_formula_units_Z   2
loop_
 _symmetry_equiv_pos_site_id
 _symmetry_equiv_pos_as_xyz
  1  'x, y, z'
loop_
 _atom_site_type_symbol
 _atom_site_label
 _atom_site_symmetry_multiplicity
 _atom_site_fract_x
 _atom_site_fract_y
 _atom_site_fract_z
 _atom_site_occupancy
  Y  Y0  1  0.75000000  0.25000000  0.50000000  1
  Y  Y1  1  0.50000000  0.50000000  0.00000000  1
  As  As2  1  0.25000000  0.75000000  0.50000000  1
  As  As3  1  0.00000000  0.00000000  0.00000000  1
  O  O4  1  0.82296500  0.00401100  0.18104500  1
  O  O5  1  0.89192000  0.57296500  0.31895500  1
  O  O6  1  0.25401100  0.57296500  0.68104500  1
  O  O7  1  0.82296500  0.64192000  0.81895500  1
  O  O8  1  0.35808000  0.17703500  0.18104500  1
  O  O9  1  0.42703500  0.74598900  0.31895500  1
  O  O10  1  0.42703500  0.10808000  0.68104500  1
  O  O11  1  0.99598900  0.17703500  0.81895500  1
