# generated using pymatgen
data_LiInF4
_symmetry_space_group_name_H-M   'P 1'
_cell_length_a   4.83493200
_cell_length_b   5.08270700
_cell_length_c   11.98568900
_cell_angle_alpha   90.00000000
_cell_angle_beta   90.00000000
_cell_angle_gamma   90.00000000
_symmetry_Int_Tables_number   1
_chemical_formula_structural   LiInF4
_chemical_formula_sum   'Li4 In4 F16'
_cell_volume   294.54282637
_cell_formula_units_Z   4
loop_
 _symmetry_equiv_pos_site_id
 _symmetry_equiv_pos_as_xyz
  1  'x, y, z'
loop_
 _atom_site_type_symbol
 _atom_site_label
 _atom_site_symmetry_multiplicity
 _atom_site_fract_x
 _atom_site_fract_y
 _atom_site_fract_z
 _atom_site_occupancy
  Li  Li0  1  0.00000000  0.75000000  0.05531700  1
  Li  Li1  1  0.50000000  0.25000000  0.44468300  1
  Li  Li2  1  0.00000000  0.25000000  0.94468300  1
  Li  Li3  1  0.50000000  0.75000000  0.55531700  1
  In  In4  1  0.00000000  0.75000000  0.33073500  1
  In  In5  1  0.50000000  0.75000000  0.83073500  1
  In  In6  1  0.00000000  0.25000000  0.66926500  1
  In  In7  1  0.50000000  0.25000000  0.16926500  1
  F  F8  1  0.23728600  0.42856700  0.05797500  1
  F  F9  1  0.77394700  0.08200600  0.80813100  1
  F  F10  1  0.27394700  0.91799400  0.69186900  1
  F  F11  1  0.72605300  0.58200600  0.69186900  1
  F  F12  1  0.73728600  0.57143300  0.44202500  1
  F  F13  1  0.26271400  0.42856700  0.55797500  1
  F  F14  1  0.76271400  0.07143300  0.05797500  1
  F  F15  1  0.26271400  0.92856700  0.44202500  1
  F  F16  1  0.23728600  0.92856700  0.94202500  1
  F  F17  1  0.76271400  0.57143300  0.94202500  1
  F  F18  1  0.22605300  0.91799400  0.19186900  1
  F  F19  1  0.73728600  0.07143300  0.55797500  1
  F  F20  1  0.77394700  0.58200600  0.19186900  1
  F  F21  1  0.27394700  0.41799400  0.30813100  1
  F  F22  1  0.72605300  0.08200600  0.30813100  1
  F  F23  1  0.22605300  0.41799400  0.80813100  1
