# generated using pymatgen
data_CaAs
_symmetry_space_group_name_H-M   'P 1'
_cell_length_a   7.91616029
_cell_length_b   7.91616029
_cell_length_c   5.92082700
_cell_angle_alpha   90.00000000
_cell_angle_beta   90.00000000
_cell_angle_gamma   120.00000246
_symmetry_Int_Tables_number   1
_chemical_formula_structural   CaAs
_chemical_formula_sum   'Ca6 As6'
_cell_volume   321.32325069
_cell_formula_units_Z   6
loop_
 _symmetry_equiv_pos_site_id
 _symmetry_equiv_pos_as_xyz
  1  'x, y, z'
loop_
 _atom_site_type_symbol
 _atom_site_label
 _atom_site_symmetry_multiplicity
 _atom_site_fract_x
 _atom_site_fract_y
 _atom_site_fract_z
 _atom_site_occupancy
  Ca  Ca0  1  0.31694100  0.00000000  0.00000000  1
  Ca  Ca1  1  0.68305900  0.68305900  0.00000000  1
  Ca  Ca2  1  0.00000000  0.31694100  0.00000000  1
  Ca  Ca3  1  0.65082300  0.00000000  0.50000000  1
  Ca  Ca4  1  0.34917700  0.34917700  0.50000000  1
  Ca  Ca5  1  0.00000000  0.65082300  0.50000000  1
  As  As6  1  0.00000000  0.00000000  0.28588100  1
  As  As7  1  0.00000000  0.00000000  0.71411900  1
  As  As8  1  0.33333300  0.66666700  0.21887100  1
  As  As9  1  0.33333300  0.66666700  0.78112900  1
  As  As10  1  0.66666700  0.33333300  0.78112900  1
  As  As11  1  0.66666700  0.33333300  0.21887100  1
