# generated using pymatgen
data_Cs2MgP4(HO2)8
_symmetry_space_group_name_H-M   'P 1'
_cell_length_a   7.08131200
_cell_length_b   7.52918596
_cell_length_c   8.03264940
_cell_angle_alpha   96.49163330
_cell_angle_beta   111.07312752
_cell_angle_gamma   87.69121671
_symmetry_Int_Tables_number   1
_chemical_formula_structural   Cs2MgP4(HO2)8
_chemical_formula_sum   'Cs2 Mg1 P4 H8 O16'
_cell_volume   397.06864157
_cell_formula_units_Z   1
loop_
 _symmetry_equiv_pos_site_id
 _symmetry_equiv_pos_as_xyz
  1  'x, y, z'
loop_
 _atom_site_type_symbol
 _atom_site_label
 _atom_site_symmetry_multiplicity
 _atom_site_fract_x
 _atom_site_fract_y
 _atom_site_fract_z
 _atom_site_occupancy
  Cs  Cs0  1  0.90992100  0.29911200  0.27928300  1
  Cs  Cs1  1  0.09007900  0.70088800  0.72071700  1
  Mg  Mg2  1  0.50000000  0.50000000  0.50000000  1
  P  P3  1  0.62649900  0.74876500  0.23739800  1
  P  P4  1  0.22110900  0.80521400  0.24881100  1
  P  P5  1  0.77889100  0.19478600  0.75118900  1
  P  P6  1  0.37350100  0.25123500  0.76260200  1
  H  H7  1  0.89280700  0.75130200  0.08908300  1
  H  H8  1  0.38901200  0.30204700  0.15640800  1
  H  H9  1  0.37036900  0.17686800  0.29825100  1
  H  H10  1  0.72843500  0.97266500  0.45190600  1
  H  H11  1  0.27156500  0.02733500  0.54809400  1
  H  H12  1  0.62963100  0.82313200  0.70174900  1
  H  H13  1  0.61098800  0.69795300  0.84359200  1
  H  H14  1  0.10719300  0.24869800  0.91091700  1
  O  O15  1  0.02211200  0.80172100  0.07847100  1
  O  O16  1  0.69520700  0.68399500  0.08246200  1
  O  O17  1  0.38442100  0.78225000  0.14581500  1
  O  O18  1  0.42543700  0.29123600  0.28613000  1
  O  O19  1  0.72603900  0.93722700  0.32258400  1
  O  O20  1  0.25711400  0.98975600  0.35416200  1
  O  O21  1  0.23671900  0.64780600  0.35461200  1
  O  O22  1  0.66450500  0.62562500  0.38212700  1
  O  O23  1  0.33549500  0.37437500  0.61787300  1
  O  O24  1  0.76328100  0.35219400  0.64538800  1
  O  O25  1  0.74288600  0.01024400  0.64583800  1
  O  O26  1  0.27396100  0.06277300  0.67741600  1
  O  O27  1  0.57456300  0.70876400  0.71387000  1
  O  O28  1  0.61557900  0.21775000  0.85418500  1
  O  O29  1  0.30479300  0.31600500  0.91753800  1
  O  O30  1  0.97788800  0.19827900  0.92152900  1
