# generated using pymatgen
data_Ta4Ni2C
_symmetry_space_group_name_H-M   'P 1'
_cell_length_a   8.26253001
_cell_length_b   8.26253001
_cell_length_c   8.26253001
_cell_angle_alpha   60.00000000
_cell_angle_beta   60.00000000
_cell_angle_gamma   60.00000000
_symmetry_Int_Tables_number   1
_chemical_formula_structural   Ta4Ni2C
_chemical_formula_sum   'Ta16 Ni8 C4'
_cell_volume   398.86336775
_cell_formula_units_Z   4
loop_
 _symmetry_equiv_pos_site_id
 _symmetry_equiv_pos_as_xyz
  1  'x, y, z'
loop_
 _atom_site_type_symbol
 _atom_site_label
 _atom_site_symmetry_multiplicity
 _atom_site_fract_x
 _atom_site_fract_y
 _atom_site_fract_z
 _atom_site_occupancy
  Ta  Ta0  1  0.62500000  0.62500000  0.62500000  1
  Ta  Ta1  1  0.62500000  0.62500000  0.12500000  1
  Ta  Ta2  1  0.12500000  0.62500000  0.62500000  1
  Ta  Ta3  1  0.62500000  0.12500000  0.62500000  1
  Ta  Ta4  1  0.43360100  0.06639900  0.06639900  1
  Ta  Ta5  1  0.06639900  0.43360100  0.43360100  1
  Ta  Ta6  1  0.06639900  0.43360100  0.06639900  1
  Ta  Ta7  1  0.06639900  0.06639900  0.43360100  1
  Ta  Ta8  1  0.43360100  0.06639900  0.43360100  1
  Ta  Ta9  1  0.43360100  0.43360100  0.06639900  1
  Ta  Ta10  1  0.18360100  0.81639900  0.18360100  1
  Ta  Ta11  1  0.81639900  0.18360100  0.81639900  1
  Ta  Ta12  1  0.81639900  0.18360100  0.18360100  1
  Ta  Ta13  1  0.18360100  0.18360100  0.81639900  1
  Ta  Ta14  1  0.18360100  0.81639900  0.81639900  1
  Ta  Ta15  1  0.81639900  0.81639900  0.18360100  1
  Ni  Ni16  1  0.83090500  0.83090500  0.83090500  1
  Ni  Ni17  1  0.83090500  0.83090500  0.50728500  1
  Ni  Ni18  1  0.50728500  0.83090500  0.83090500  1
  Ni  Ni19  1  0.83090500  0.50728500  0.83090500  1
  Ni  Ni20  1  0.41909500  0.41909500  0.41909500  1
  Ni  Ni21  1  0.41909500  0.41909500  0.74271500  1
  Ni  Ni22  1  0.41909500  0.74271500  0.41909500  1
  Ni  Ni23  1  0.74271500  0.41909500  0.41909500  1
  C  C24  1  0.12500000  0.12500000  0.12500000  1
  C  C25  1  0.12500000  0.12500000  0.62500000  1
  C  C26  1  0.62500000  0.12500000  0.12500000  1
  C  C27  1  0.12500000  0.62500000  0.12500000  1
