# generated using pymatgen
data_ThNF
_symmetry_space_group_name_H-M   'P 1'
_cell_length_a   7.21574381
_cell_length_b   7.21574381
_cell_length_c   7.21574322
_cell_angle_alpha   32.31845184
_cell_angle_beta   32.31845184
_cell_angle_gamma   32.31845675
_symmetry_Int_Tables_number   1
_chemical_formula_structural   ThNF
_chemical_formula_sum   'Th2 N2 F2'
_cell_volume   95.45841687
_cell_formula_units_Z   2
loop_
 _symmetry_equiv_pos_site_id
 _symmetry_equiv_pos_as_xyz
  1  'x, y, z'
loop_
 _atom_site_type_symbol
 _atom_site_label
 _atom_site_symmetry_multiplicity
 _atom_site_fract_x
 _atom_site_fract_y
 _atom_site_fract_z
 _atom_site_occupancy
  Th  Th0  1  0.73806300  0.73806300  0.73806300  1
  Th  Th1  1  0.26193700  0.26193700  0.26193700  1
  N  N2  1  0.62294600  0.62294600  0.62294600  1
  N  N3  1  0.37705400  0.37705400  0.37705400  1
  F  F4  1  0.13113800  0.13113800  0.13113800  1
  F  F5  1  0.86886200  0.86886200  0.86886200  1
