# generated using pymatgen
data_Na2P2PdO7
_symmetry_space_group_name_H-M   'P 1'
_cell_length_a   8.01374832
_cell_length_b   8.01374832
_cell_length_c   8.05775238
_cell_angle_alpha   67.63405237
_cell_angle_beta   67.63405237
_cell_angle_gamma   43.89724455
_symmetry_Int_Tables_number   1
_chemical_formula_structural   Na2P2PdO7
_chemical_formula_sum   'Na4 P4 Pd2 O14'
_cell_volume   327.21201124
_cell_formula_units_Z   2
loop_
 _symmetry_equiv_pos_site_id
 _symmetry_equiv_pos_as_xyz
  1  'x, y, z'
loop_
 _atom_site_type_symbol
 _atom_site_label
 _atom_site_symmetry_multiplicity
 _atom_site_fract_x
 _atom_site_fract_y
 _atom_site_fract_z
 _atom_site_occupancy
  Na  Na0  1  0.08932800  0.36420700  0.69730300  1
  Na  Na1  1  0.63579300  0.91067200  0.80269700  1
  Na  Na2  1  0.91067200  0.63579300  0.30269700  1
  Na  Na3  1  0.36420700  0.08932800  0.19730300  1
  P  P4  1  0.44761600  0.76401300  0.65852200  1
  P  P5  1  0.23598700  0.55238400  0.84147800  1
  P  P6  1  0.55238400  0.23598700  0.34147800  1
  P  P7  1  0.76401300  0.44761600  0.15852200  1
  Pd  Pd8  1  0.00000000  0.00000000  0.50000000  1
  Pd  Pd9  1  0.00000000  0.00000000  0.00000000  1
  O  O10  1  0.88703200  0.32654300  0.98839900  1
  O  O11  1  0.67345700  0.11296800  0.51160100  1
  O  O12  1  0.11296800  0.67345700  0.01160100  1
  O  O13  1  0.32654300  0.88703200  0.48839900  1
  O  O14  1  0.06481400  0.70886000  0.69686800  1
  O  O15  1  0.29114000  0.93518600  0.80313200  1
  O  O16  1  0.93518600  0.29114000  0.30313200  1
  O  O17  1  0.70886000  0.06481400  0.19686800  1
  O  O18  1  0.46766700  0.53233300  0.75000000  1
  O  O19  1  0.53233300  0.46766700  0.25000000  1
  O  O20  1  0.29903300  0.32773800  0.39358600  1
  O  O21  1  0.67226200  0.70096700  0.10641400  1
  O  O22  1  0.70096700  0.67226200  0.60641400  1
  O  O23  1  0.32773800  0.29903300  0.89358600  1
