# generated using pymatgen
data_Ba(CdSb)2
_symmetry_space_group_name_H-M   'P 1'
_cell_length_a   4.87306381
_cell_length_b   4.87306381
_cell_length_c   8.17156300
_cell_angle_alpha   90.00000000
_cell_angle_beta   90.00000000
_cell_angle_gamma   119.99999743
_symmetry_Int_Tables_number   1
_chemical_formula_structural   Ba(CdSb)2
_chemical_formula_sum   'Ba1 Cd2 Sb2'
_cell_volume   168.05056345
_cell_formula_units_Z   1
loop_
 _symmetry_equiv_pos_site_id
 _symmetry_equiv_pos_as_xyz
  1  'x, y, z'
loop_
 _atom_site_type_symbol
 _atom_site_label
 _atom_site_symmetry_multiplicity
 _atom_site_fract_x
 _atom_site_fract_y
 _atom_site_fract_z
 _atom_site_occupancy
  Ba  Ba0  1  0.00000000  0.00000000  0.00000000  1
  Cd  Cd1  1  0.66666700  0.33333300  0.63275700  1
  Cd  Cd2  1  0.33333300  0.66666700  0.36724300  1
  Sb  Sb3  1  0.66666700  0.33333300  0.26313000  1
  Sb  Sb4  1  0.33333300  0.66666700  0.73687000  1
