# generated using pymatgen
data_PuF3
_symmetry_space_group_name_H-M   'P 1'
_cell_length_a   4.14045507
_cell_length_b   4.14045507
_cell_length_c   7.21230000
_cell_angle_alpha   90.00000000
_cell_angle_beta   90.00000000
_cell_angle_gamma   119.99998507
_symmetry_Int_Tables_number   1
_chemical_formula_structural   PuF3
_chemical_formula_sum   'Pu2 F6'
_cell_volume   107.07809392
_cell_formula_units_Z   2
loop_
 _symmetry_equiv_pos_site_id
 _symmetry_equiv_pos_as_xyz
  1  'x, y, z'
loop_
 _atom_site_type_symbol
 _atom_site_label
 _atom_site_symmetry_multiplicity
 _atom_site_fract_x
 _atom_site_fract_y
 _atom_site_fract_z
 _atom_site_occupancy
  Pu  Pu0  1  0.66666700  0.33333300  0.75000000  1
  Pu  Pu1  1  0.33333300  0.66666700  0.25000000  1
  F  F2  1  0.66666700  0.33333300  0.42221200  1
  F  F3  1  0.66666700  0.33333300  0.07778800  1
  F  F4  1  0.00000000  0.00000000  0.25000000  1
  F  F5  1  0.00000000  0.00000000  0.75000000  1
  F  F6  1  0.33333300  0.66666700  0.92221200  1
  F  F7  1  0.33333300  0.66666700  0.57778800  1
