# generated using pymatgen
data_SiRh
_symmetry_space_group_name_H-M   'P 1'
_cell_length_a   3.11072000
_cell_length_b   5.59549400
_cell_length_c   6.43825000
_cell_angle_alpha   90.00000000
_cell_angle_beta   90.00000000
_cell_angle_gamma   90.00000000
_symmetry_Int_Tables_number   1
_chemical_formula_structural   SiRh
_chemical_formula_sum   'Si4 Rh4'
_cell_volume   112.06427669
_cell_formula_units_Z   4
loop_
 _symmetry_equiv_pos_site_id
 _symmetry_equiv_pos_as_xyz
  1  'x, y, z'
loop_
 _atom_site_type_symbol
 _atom_site_label
 _atom_site_symmetry_multiplicity
 _atom_site_fract_x
 _atom_site_fract_y
 _atom_site_fract_z
 _atom_site_occupancy
  Si  Si0  1  0.25000000  0.68478400  0.05621800  1
  Si  Si1  1  0.75000000  0.31521600  0.94378200  1
  Si  Si2  1  0.25000000  0.18478400  0.44378200  1
  Si  Si3  1  0.75000000  0.81521600  0.55621800  1
  Rh  Rh4  1  0.25000000  0.50287800  0.70265300  1
  Rh  Rh5  1  0.75000000  0.49712200  0.29734700  1
  Rh  Rh6  1  0.25000000  0.00287800  0.79734700  1
  Rh  Rh7  1  0.75000000  0.99712200  0.20265300  1
