# generated using pymatgen
data_S(OF)2
_symmetry_space_group_name_H-M   'P 1'
_cell_length_a   5.39422200
_cell_length_b   5.39422200
_cell_length_c   12.09227000
_cell_angle_alpha   90.00000000
_cell_angle_beta   90.00000000
_cell_angle_gamma   90.00000000
_symmetry_Int_Tables_number   1
_chemical_formula_structural   S(OF)2
_chemical_formula_sum   'S4 O8 F8'
_cell_volume   351.85641023
_cell_formula_units_Z   4
loop_
 _symmetry_equiv_pos_site_id
 _symmetry_equiv_pos_as_xyz
  1  'x, y, z'
loop_
 _atom_site_type_symbol
 _atom_site_label
 _atom_site_symmetry_multiplicity
 _atom_site_fract_x
 _atom_site_fract_y
 _atom_site_fract_z
 _atom_site_occupancy
  S  S0  1  0.92008100  0.92008100  0.50000000  1
  S  S1  1  0.57991900  0.42008100  0.75000000  1
  S  S2  1  0.42008100  0.57991900  0.25000000  1
  S  S3  1  0.07991900  0.07991900  0.00000000  1
  O  O4  1  0.98838600  0.67991200  0.46356600  1
  O  O5  1  0.01161400  0.32008800  0.96356600  1
  O  O6  1  0.67991200  0.98838600  0.53643400  1
  O  O7  1  0.17991200  0.51161400  0.21356600  1
  O  O8  1  0.48838600  0.82008800  0.28643400  1
  O  O9  1  0.32008800  0.01161400  0.03643400  1
  O  O10  1  0.82008800  0.48838600  0.71356600  1
  O  O11  1  0.51161400  0.17991200  0.78643400  1
  F  F12  1  0.61145700  0.49493200  0.15971500  1
  F  F13  1  0.11145700  0.00506800  0.59028500  1
  F  F14  1  0.99493200  0.88854300  0.90971500  1
  F  F15  1  0.00506800  0.11145700  0.40971500  1
  F  F16  1  0.50506800  0.38854300  0.34028500  1
  F  F17  1  0.88854300  0.99493200  0.09028500  1
  F  F18  1  0.38854300  0.50506800  0.65971500  1
  F  F19  1  0.49493200  0.61145700  0.84028500  1
