# generated using pymatgen
data_K2MnSe2
_symmetry_space_group_name_H-M   'P 1'
_cell_length_a   8.24811747
_cell_length_b   8.24811747
_cell_length_c   8.24811747
_cell_angle_alpha   133.03485925
_cell_angle_beta   128.62127735
_cell_angle_gamma   72.14476932
_symmetry_Int_Tables_number   1
_chemical_formula_structural   K2MnSe2
_chemical_formula_sum   'K4 Mn2 Se4'
_cell_volume   313.37154162
_cell_formula_units_Z   2
loop_
 _symmetry_equiv_pos_site_id
 _symmetry_equiv_pos_as_xyz
  1  'x, y, z'
loop_
 _atom_site_type_symbol
 _atom_site_label
 _atom_site_symmetry_multiplicity
 _atom_site_fract_x
 _atom_site_fract_y
 _atom_site_fract_z
 _atom_site_occupancy
  K  K0  1  0.47889300  0.14540500  0.33348700  1
  K  K1  1  0.52110700  0.85459500  0.66651300  1
  K  K2  1  0.18808200  0.35459500  0.83348700  1
  K  K3  1  0.81191800  0.64540500  0.16651300  1
  Mn  Mn4  1  0.00000000  0.25000000  0.25000000  1
  Mn  Mn5  1  0.00000000  0.75000000  0.75000000  1
  Se  Se6  1  0.09042300  0.89530200  0.19512100  1
  Se  Se7  1  0.90957700  0.10469800  0.80487900  1
  Se  Se8  1  0.29981800  0.60469800  0.69512100  1
  Se  Se9  1  0.70018200  0.39530200  0.30487900  1
