# generated using pymatgen
data_RbLiH12Se3N4
_symmetry_space_group_name_H-M   'P 1'
_cell_length_a   10.28099229
_cell_length_b   10.28099229
_cell_length_c   20.39810293
_cell_angle_alpha   69.09378400
_cell_angle_beta   69.09378400
_cell_angle_gamma   34.67968677
_symmetry_Int_Tables_number   1
_chemical_formula_structural   RbLiH12Se3N4
_chemical_formula_sum   'Rb4 Li4 H48 Se12 N16'
_cell_volume   1137.82607437
_cell_formula_units_Z   4
loop_
 _symmetry_equiv_pos_site_id
 _symmetry_equiv_pos_as_xyz
  1  'x, y, z'
loop_
 _atom_site_type_symbol
 _atom_site_label
 _atom_site_symmetry_multiplicity
 _atom_site_fract_x
 _atom_site_fract_y
 _atom_site_fract_z
 _atom_site_occupancy
  Rb  Rb0  1  0.82882900  0.79834200  0.76271200  1
  Rb  Rb1  1  0.20165800  0.17117100  0.73728800  1
  Rb  Rb2  1  0.17117100  0.20165800  0.23728800  1
  Rb  Rb3  1  0.79834200  0.82882900  0.26271200  1
  Li  Li4  1  0.00691800  0.19673200  0.04945200  1
  Li  Li5  1  0.80326800  0.99308200  0.45054800  1
  Li  Li6  1  0.99308200  0.80326800  0.95054800  1
  Li  Li7  1  0.19673200  0.00691800  0.54945200  1
  H  H8  1  0.12863200  0.83844400  0.66598700  1
  H  H9  1  0.16155600  0.87136800  0.83401300  1
  H  H10  1  0.87136800  0.16155600  0.33401300  1
  H  H11  1  0.83844400  0.12863200  0.16598700  1
  H  H12  1  0.00789800  0.06373300  0.68812800  1
  H  H13  1  0.93626700  0.99210200  0.81187200  1
  H  H14  1  0.99210200  0.93626700  0.31187200  1
  H  H15  1  0.06373300  0.00789800  0.18812800  1
  H  H16  1  0.34541400  0.08393300  0.07372400  1
  H  H17  1  0.91606700  0.65458600  0.42627600  1
  H  H18  1  0.65458600  0.91606700  0.92627600  1
  H  H19  1  0.08393300  0.34541400  0.57372400  1
  H  H20  1  0.24397800  0.24404000  0.99754900  1
  H  H21  1  0.75596000  0.75602200  0.50245100  1
  H  H22  1  0.75602200  0.75596000  0.00245100  1
  H  H23  1  0.24404000  0.24397800  0.49754900  1
  H  H24  1  0.64696700  0.59953900  0.56519600  1
  H  H25  1  0.40046100  0.35303300  0.93480400  1
  H  H26  1  0.35303300  0.40046100  0.43480400  1
  H  H27  1  0.59953900  0.64696700  0.06519600  1
  H  H28  1  0.08673500  0.36346900  0.07172800  1
  H  H29  1  0.63653100  0.91326500  0.42827200  1
  H  H30  1  0.91326500  0.63653100  0.92827200  1
  H  H31  1  0.36346900  0.08673500  0.57172800  1
  H  H32  1  0.98821300  0.19260500  0.92342000  1
  H  H33  1  0.80739500  0.01178700  0.57658000  1
  H  H34  1  0.01178700  0.80739500  0.07658000  1
  H  H35  1  0.19260500  0.98821300  0.42342000  1
  H  H36  1  0.86282500  0.10298700  0.64861600  1
  H  H37  1  0.89701300  0.13717500  0.85138400  1
  H  H38  1  0.13717500  0.89701300  0.35138400  1
  H  H39  1  0.10298700  0.86282500  0.14861600  1
  H  H40  1  0.15940600  0.92604600  0.95772900  1
  H  H41  1  0.07395400  0.84059400  0.54227100  1
  H  H42  1  0.84059400  0.07395400  0.04227100  1
  H  H43  1  0.92604600  0.15940600  0.45772900  1
  H  H44  1  0.54489300  0.53471400  0.56479800  1
  H  H45  1  0.46528600  0.45510700  0.93520200  1
  H  H46  1  0.45510700  0.46528600  0.43520200  1
  H  H47  1  0.53471400  0.54489300  0.06479800  1
  H  H48  1  0.25864200  0.00474500  0.92506300  1
  H  H49  1  0.99525500  0.74135800  0.57493700  1
  H  H50  1  0.74135800  0.99525500  0.07493700  1
  H  H51  1  0.00474500  0.25864200  0.42506300  1
  H  H52  1  0.62633500  0.59710200  0.48978000  1
  H  H53  1  0.40289800  0.37366500  0.01022000  1
  H  H54  1  0.37366500  0.40289800  0.51022000  1
  H  H55  1  0.59710200  0.62633500  0.98978000  1
  Se  Se56  1  0.41915700  0.38733500  0.77169900  1
  Se  Se57  1  0.61266500  0.58084300  0.72830100  1
  Se  Se58  1  0.58084300  0.61266500  0.22830100  1
  Se  Se59  1  0.38733500  0.41915700  0.27169900  1
  Se  Se60  1  0.29122800  0.26920700  0.85688900  1
  Se  Se61  1  0.73079300  0.70877200  0.64311100  1
  Se  Se62  1  0.70877200  0.73079300  0.14311100  1
  Se  Se63  1  0.26920700  0.29122800  0.35688900  1
  Se  Se64  1  0.42278800  0.36420900  0.65861900  1
  Se  Se65  1  0.63579100  0.57721200  0.84138100  1
  Se  Se66  1  0.57721200  0.63579100  0.34138100  1
  Se  Se67  1  0.36420900  0.42278800  0.15861900  1
  N  N68  1  0.02546300  0.00726300  0.64931500  1
  N  N69  1  0.99273700  0.97453700  0.85068500  1
  N  N70  1  0.97453700  0.99273700  0.35068500  1
  N  N71  1  0.00726300  0.02546300  0.14931500  1
  N  N72  1  0.19731800  0.21800900  0.04915000  1
  N  N73  1  0.78199100  0.80268200  0.45085000  1
  N  N74  1  0.80268200  0.78199100  0.95085000  1
  N  N75  1  0.21800900  0.19731800  0.54915000  1
  N  N76  1  0.11869400  0.05836200  0.95533700  1
  N  N77  1  0.94163800  0.88130600  0.54466300  1
  N  N78  1  0.88130600  0.94163800  0.04466300  1
  N  N79  1  0.05836200  0.11869400  0.45533700  1
  N  N80  1  0.54279300  0.64307300  0.53975700  1
  N  N81  1  0.35692700  0.45720700  0.96024300  1
  N  N82  1  0.45720700  0.35692700  0.46024300  1
  N  N83  1  0.64307300  0.54279300  0.03975700  1
