# generated using pymatgen
data_Ba3NaNbO6
_symmetry_space_group_name_H-M   'P 1'
_cell_length_a   7.24252658
_cell_length_b   7.24252658
_cell_length_c   7.24252627
_cell_angle_alpha   91.89354055
_cell_angle_beta   91.89354055
_cell_angle_gamma   91.89353300
_symmetry_Int_Tables_number   1
_chemical_formula_structural   Ba3NaNbO6
_chemical_formula_sum   'Ba6 Na2 Nb2 O12'
_cell_volume   379.26445416
_cell_formula_units_Z   2
loop_
 _symmetry_equiv_pos_site_id
 _symmetry_equiv_pos_as_xyz
  1  'x, y, z'
loop_
 _atom_site_type_symbol
 _atom_site_label
 _atom_site_symmetry_multiplicity
 _atom_site_fract_x
 _atom_site_fract_y
 _atom_site_fract_z
 _atom_site_occupancy
  Ba  Ba0  1  0.25000000  0.89774500  0.60225500  1
  Ba  Ba1  1  0.60225500  0.25000000  0.89774500  1
  Ba  Ba2  1  0.89774500  0.60225500  0.25000000  1
  Ba  Ba3  1  0.75000000  0.10225500  0.39774500  1
  Ba  Ba4  1  0.39774500  0.75000000  0.10225500  1
  Ba  Ba5  1  0.10225500  0.39774500  0.75000000  1
  Na  Na6  1  0.75000000  0.75000000  0.75000000  1
  Na  Na7  1  0.25000000  0.25000000  0.25000000  1
  Nb  Nb8  1  0.50000000  0.50000000  0.50000000  1
  Nb  Nb9  1  0.00000000  0.00000000  0.00000000  1
  O  O10  1  0.05067800  0.73210200  0.92265500  1
  O  O11  1  0.92265500  0.05067800  0.73210200  1
  O  O12  1  0.73210200  0.92265500  0.05067800  1
  O  O13  1  0.44932200  0.57734500  0.76789800  1
  O  O14  1  0.76789800  0.44932200  0.57734500  1
  O  O15  1  0.57734500  0.76789800  0.44932200  1
  O  O16  1  0.94932200  0.26789800  0.07734500  1
  O  O17  1  0.07734500  0.94932200  0.26789800  1
  O  O18  1  0.26789800  0.07734500  0.94932200  1
  O  O19  1  0.55067800  0.42265500  0.23210200  1
  O  O20  1  0.42265500  0.23210200  0.55067800  1
  O  O21  1  0.23210200  0.55067800  0.42265500  1
