# generated using pymatgen
data_Dy2TlCd
_symmetry_space_group_name_H-M   'P 1'
_cell_length_a   5.33173928
_cell_length_b   5.33173928
_cell_length_c   5.33173928
_cell_angle_alpha   60.00000000
_cell_angle_beta   60.00000000
_cell_angle_gamma   60.00000000
_symmetry_Int_Tables_number   1
_chemical_formula_structural   Dy2TlCd
_chemical_formula_sum   'Dy2 Tl1 Cd1'
_cell_volume   107.17456151
_cell_formula_units_Z   1
loop_
 _symmetry_equiv_pos_site_id
 _symmetry_equiv_pos_as_xyz
  1  'x, y, z'
loop_
 _atom_site_type_symbol
 _atom_site_label
 _atom_site_symmetry_multiplicity
 _atom_site_fract_x
 _atom_site_fract_y
 _atom_site_fract_z
 _atom_site_occupancy
  Dy  Dy0  1  0.75000000  0.75000000  0.75000000  1
  Dy  Dy1  1  0.25000000  0.25000000  0.25000000  1
  Tl  Tl2  1  0.00000000  0.00000000  0.00000000  1
  Cd  Cd3  1  0.50000000  0.50000000  0.50000000  1
