# generated using pymatgen
data_Tl6TeO6
_symmetry_space_group_name_H-M   'P 1'
_cell_length_a   6.73049190
_cell_length_b   6.73049190
_cell_length_c   6.73049245
_cell_angle_alpha   92.78943776
_cell_angle_beta   92.78943776
_cell_angle_gamma   92.78943751
_symmetry_Int_Tables_number   1
_chemical_formula_structural   Tl6TeO6
_chemical_formula_sum   'Tl6 Te1 O6'
_cell_volume   303.76776708
_cell_formula_units_Z   1
loop_
 _symmetry_equiv_pos_site_id
 _symmetry_equiv_pos_as_xyz
  1  'x, y, z'
loop_
 _atom_site_type_symbol
 _atom_site_label
 _atom_site_symmetry_multiplicity
 _atom_site_fract_x
 _atom_site_fract_y
 _atom_site_fract_z
 _atom_site_occupancy
  Tl  Tl0  1  0.44381900  0.73682000  0.87057100  1
  Tl  Tl1  1  0.87057100  0.44381900  0.73682000  1
  Tl  Tl2  1  0.73682000  0.87057100  0.44381900  1
  Tl  Tl3  1  0.55618100  0.26318000  0.12942900  1
  Tl  Tl4  1  0.12942900  0.55618100  0.26318000  1
  Tl  Tl5  1  0.26318000  0.12942900  0.55618100  1
  Te  Te6  1  0.00000000  0.00000000  0.00000000  1
  O  O7  1  0.95875400  0.03501700  0.71143100  1
  O  O8  1  0.71143100  0.95875400  0.03501700  1
  O  O9  1  0.03501700  0.71143100  0.95875400  1
  O  O10  1  0.04124600  0.96498300  0.28856900  1
  O  O11  1  0.28856900  0.04124600  0.96498300  1
  O  O12  1  0.96498300  0.28856900  0.04124600  1
