# generated using pymatgen
data_K4UO5
_symmetry_space_group_name_H-M   'P 1'
_cell_length_a   6.55850000
_cell_length_b   6.55987127
_cell_length_c   9.83636202
_cell_angle_alpha   101.65802948
_cell_angle_beta   108.82740203
_cell_angle_gamma   102.18484069
_symmetry_Int_Tables_number   1
_chemical_formula_structural   K4UO5
_chemical_formula_sum   'K8 U2 O10'
_cell_volume   374.45497497
_cell_formula_units_Z   2
loop_
 _symmetry_equiv_pos_site_id
 _symmetry_equiv_pos_as_xyz
  1  'x, y, z'
loop_
 _atom_site_type_symbol
 _atom_site_label
 _atom_site_symmetry_multiplicity
 _atom_site_fract_x
 _atom_site_fract_y
 _atom_site_fract_z
 _atom_site_occupancy
  K  K0  1  0.58355100  0.79639900  0.09757300  1
  K  K1  1  0.20566200  0.59529800  0.69987300  1
  K  K2  1  0.59867800  0.29605800  0.59717600  1
  K  K3  1  0.40132200  0.70394200  0.40282400  1
  K  K4  1  0.41644900  0.20360100  0.90242700  1
  K  K5  1  0.00000000  0.00000000  0.50000000  1
  K  K6  1  0.00000000  0.50000000  0.00000000  1
  K  K7  1  0.79433800  0.40470200  0.30012700  1
  U  U8  1  0.18947700  0.10021000  0.19544900  1
  U  U9  1  0.81052300  0.89979000  0.80455100  1
  O  O10  1  0.35614700  0.37131200  0.15841000  1
  O  O11  1  0.64385300  0.62868800  0.84159000  1
  O  O12  1  0.17591500  0.29541900  0.38721800  1
  O  O13  1  0.82408500  0.70458100  0.61278200  1
  O  O14  1  0.97055200  0.16995900  0.76371900  1
  O  O15  1  0.02944800  0.83004100  0.23628100  1
  O  O16  1  0.85675100  0.10477300  0.03522800  1
  O  O17  1  0.14324900  0.89522700  0.96477200  1
  O  O18  1  0.50027300  0.94044900  0.69487600  1
  O  O19  1  0.49972700  0.05955100  0.30512400  1
