# generated using pymatgen
data_PdPtF6
_symmetry_space_group_name_H-M   'P 1'
_cell_length_a   5.67341312
_cell_length_b   5.67341312
_cell_length_c   5.67341269
_cell_angle_alpha   54.43095279
_cell_angle_beta   54.43095279
_cell_angle_gamma   54.43094629
_symmetry_Int_Tables_number   1
_chemical_formula_structural   PdPtF6
_chemical_formula_sum   'Pd1 Pt1 F6'
_cell_volume   112.35778230
_cell_formula_units_Z   1
loop_
 _symmetry_equiv_pos_site_id
 _symmetry_equiv_pos_as_xyz
  1  'x, y, z'
loop_
 _atom_site_type_symbol
 _atom_site_label
 _atom_site_symmetry_multiplicity
 _atom_site_fract_x
 _atom_site_fract_y
 _atom_site_fract_z
 _atom_site_occupancy
  Pd  Pd0  1  0.00000000  0.00000000  0.00000000  1
  Pt  Pt1  1  0.50000000  0.50000000  0.50000000  1
  F  F2  1  0.41928900  0.10961300  0.73199500  1
  F  F3  1  0.73199500  0.41928900  0.10961300  1
  F  F4  1  0.89038700  0.26800500  0.58071100  1
  F  F5  1  0.26800500  0.58071100  0.89038700  1
  F  F6  1  0.58071100  0.89038700  0.26800500  1
  F  F7  1  0.10961300  0.73199500  0.41928900  1
