# generated using pymatgen
data_RbMnP3HO10
_symmetry_space_group_name_H-M   'P 1'
_cell_length_a   7.58747720
_cell_length_b   7.58712979
_cell_length_c   8.91845908
_cell_angle_alpha   76.09287472
_cell_angle_beta   103.92333781
_cell_angle_gamma   109.53933566
_symmetry_Int_Tables_number   1
_chemical_formula_structural   RbMnP3HO10
_chemical_formula_sum   'Rb2 Mn2 P6 H2 O20'
_cell_volume   462.39982031
_cell_formula_units_Z   2
loop_
 _symmetry_equiv_pos_site_id
 _symmetry_equiv_pos_as_xyz
  1  'x, y, z'
loop_
 _atom_site_type_symbol
 _atom_site_label
 _atom_site_symmetry_multiplicity
 _atom_site_fract_x
 _atom_site_fract_y
 _atom_site_fract_z
 _atom_site_occupancy
  Rb  Rb0  1  0.62891000  0.09536100  0.24971500  1
  Rb  Rb1  1  0.09599800  0.62924800  0.75086000  1
  Mn  Mn2  1  0.20045100  0.20054600  0.49978000  1
  Mn  Mn3  1  0.71069000  0.71072300  0.00017600  1
  P  P4  1  0.06961100  0.53659000  0.20736700  1
  P  P5  1  0.53697600  0.07010300  0.79248600  1
  P  P6  1  0.06763400  0.91502900  0.23610200  1
  P  P7  1  0.91511100  0.06738600  0.76387400  1
  P  P8  1  0.45658300  0.51442200  0.26972700  1
  P  P9  1  0.51435600  0.45687800  0.73026400  1
  H  H10  1  0.61566700  0.61466600  0.50103000  1
  H  H11  1  0.12313200  0.12376300  0.99944000  1
  O  O12  1  0.19911200  0.04572700  0.12214200  1
  O  O13  1  0.04596700  0.19904400  0.87800000  1
  O  O14  1  0.09335800  0.98126200  0.39029700  1
  O  O15  1  0.98151400  0.09340400  0.60975900  1
  O  O16  1  0.85695100  0.86573700  0.15944800  1
  O  O17  1  0.86584500  0.85691700  0.84065700  1
  O  O18  1  0.12478800  0.71781800  0.29361800  1
  O  O19  1  0.71812000  0.12491100  0.70618400  1
  O  O20  1  0.92854400  0.55445600  0.05842900  1
  O  O21  1  0.55453000  0.92910700  0.94146600  1
  O  O22  1  0.02341500  0.36087000  0.32966600  1
  O  O23  1  0.36100600  0.02384300  0.67046800  1
  O  O24  1  0.26779800  0.55840800  0.15573800  1
  O  O25  1  0.56006000  0.26897400  0.84390500  1
  O  O26  1  0.39985700  0.31432900  0.36945700  1
  O  O27  1  0.31446900  0.39991100  0.63063700  1
  O  O28  1  0.57945700  0.51313700  0.15747400  1
  O  O29  1  0.51338100  0.58041400  0.84208500  1
  O  O30  1  0.54490400  0.67271300  0.36824600  1
  O  O31  1  0.67280500  0.54529700  0.63150500  1
