# generated using pymatgen
data_TaSe2
_symmetry_space_group_name_H-M   'P 1'
_cell_length_a   12.59547675
_cell_length_b   12.35322555
_cell_length_c   3.47549016
_cell_angle_alpha   85.96963334
_cell_angle_beta   78.05350047
_cell_angle_gamma   15.97686619
_symmetry_Int_Tables_number   1
_chemical_formula_structural   TaSe2
_chemical_formula_sum   'Ta1 Se2'
_cell_volume   127.90931308
_cell_formula_units_Z   1
loop_
 _symmetry_equiv_pos_site_id
 _symmetry_equiv_pos_as_xyz
  1  'x, y, z'
loop_
 _atom_site_type_symbol
 _atom_site_label
 _atom_site_symmetry_multiplicity
 _atom_site_fract_x
 _atom_site_fract_y
 _atom_site_fract_z
 _atom_site_occupancy
  Ta  Ta0  1  0.08153400  0.91846600  0.08153400  1
  Se  Se1  1  0.81681400  0.32034800  0.67965200  1
  Se  Se2  1  0.67965200  0.18318600  0.81681400  1
