# generated using pymatgen
data_Tm2Mg
_symmetry_space_group_name_H-M   'P 1'
_cell_length_a   8.77435559
_cell_length_b   8.77435559
_cell_length_c   5.40254600
_cell_angle_alpha   90.00000000
_cell_angle_beta   90.00000000
_cell_angle_gamma   156.43358121
_symmetry_Int_Tables_number   1
_chemical_formula_structural   Tm2Mg
_chemical_formula_sum   'Tm4 Mg2'
_cell_volume   166.29708253
_cell_formula_units_Z   2
loop_
 _symmetry_equiv_pos_site_id
 _symmetry_equiv_pos_as_xyz
  1  'x, y, z'
loop_
 _atom_site_type_symbol
 _atom_site_label
 _atom_site_symmetry_multiplicity
 _atom_site_fract_x
 _atom_site_fract_y
 _atom_site_fract_z
 _atom_site_occupancy
  Tm  Tm0  1  0.09752800  0.90247200  0.25000000  1
  Tm  Tm1  1  0.77407500  0.22592500  0.25000000  1
  Tm  Tm2  1  0.90247200  0.09752800  0.75000000  1
  Tm  Tm3  1  0.22592500  0.77407500  0.75000000  1
  Mg  Mg4  1  0.43726800  0.56273200  0.25000000  1
  Mg  Mg5  1  0.56273200  0.43726800  0.75000000  1
