# generated using pymatgen
data_Dy(Ni2P)2
_symmetry_space_group_name_H-M   'P 1'
_cell_length_a   7.09144600
_cell_length_b   7.09144600
_cell_length_c   3.59824500
_cell_angle_alpha   90.00000000
_cell_angle_beta   90.00000000
_cell_angle_gamma   90.00000000
_symmetry_Int_Tables_number   1
_chemical_formula_structural   Dy(Ni2P)2
_chemical_formula_sum   'Dy2 Ni8 P4'
_cell_volume   180.95072643
_cell_formula_units_Z   2
loop_
 _symmetry_equiv_pos_site_id
 _symmetry_equiv_pos_as_xyz
  1  'x, y, z'
loop_
 _atom_site_type_symbol
 _atom_site_label
 _atom_site_symmetry_multiplicity
 _atom_site_fract_x
 _atom_site_fract_y
 _atom_site_fract_z
 _atom_site_occupancy
  Dy  Dy0  1  0.00000000  0.00000000  0.00000000  1
  Dy  Dy1  1  0.50000000  0.50000000  0.50000000  1
  Ni  Ni2  1  0.58523400  0.83710200  0.00000000  1
  Ni  Ni3  1  0.83710200  0.58523400  0.00000000  1
  Ni  Ni4  1  0.16289800  0.41476600  0.00000000  1
  Ni  Ni5  1  0.41476600  0.16289800  0.00000000  1
  Ni  Ni6  1  0.66289800  0.08523400  0.50000000  1
  Ni  Ni7  1  0.91476600  0.33710200  0.50000000  1
  Ni  Ni8  1  0.08523400  0.66289800  0.50000000  1
  Ni  Ni9  1  0.33710200  0.91476600  0.50000000  1
  P  P10  1  0.72001900  0.27998100  0.00000000  1
  P  P11  1  0.27998100  0.72001900  0.00000000  1
  P  P12  1  0.77998100  0.77998100  0.50000000  1
  P  P13  1  0.22001900  0.22001900  0.50000000  1
