# generated using pymatgen
data_Cs2NbF6
_symmetry_space_group_name_H-M   'P 1'
_cell_length_a   6.52926804
_cell_length_b   6.52926804
_cell_length_c   5.02988200
_cell_angle_alpha   90.00000000
_cell_angle_beta   90.00000000
_cell_angle_gamma   120.00000039
_symmetry_Int_Tables_number   1
_chemical_formula_structural   Cs2NbF6
_chemical_formula_sum   'Cs2 Nb1 F6'
_cell_volume   185.70235947
_cell_formula_units_Z   1
loop_
 _symmetry_equiv_pos_site_id
 _symmetry_equiv_pos_as_xyz
  1  'x, y, z'
loop_
 _atom_site_type_symbol
 _atom_site_label
 _atom_site_symmetry_multiplicity
 _atom_site_fract_x
 _atom_site_fract_y
 _atom_site_fract_z
 _atom_site_occupancy
  Cs  Cs0  1  0.66666700  0.33333300  0.30260400  1
  Cs  Cs1  1  0.33333300  0.66666700  0.69739600  1
  Nb  Nb2  1  0.00000000  0.00000000  0.00000000  1
  F  F3  1  0.84700000  0.15300000  0.79205300  1
  F  F4  1  0.84700000  0.69400000  0.79205300  1
  F  F5  1  0.30600000  0.15300000  0.79205300  1
  F  F6  1  0.15300000  0.84700000  0.20794700  1
  F  F7  1  0.15300000  0.30600000  0.20794700  1
  F  F8  1  0.69400000  0.84700000  0.20794700  1
