# generated using pymatgen
data_K2Na(H2N)3
_symmetry_space_group_name_H-M   'P 1'
_cell_length_a   7.03338000
_cell_length_b   7.03338000
_cell_length_c   12.40927300
_cell_angle_alpha   90.00000000
_cell_angle_beta   90.00000000
_cell_angle_gamma   90.00000000
_symmetry_Int_Tables_number   1
_chemical_formula_structural   K2Na(H2N)3
_chemical_formula_sum   'K8 Na4 H24 N12'
_cell_volume   613.86730517
_cell_formula_units_Z   4
loop_
 _symmetry_equiv_pos_site_id
 _symmetry_equiv_pos_as_xyz
  1  'x, y, z'
loop_
 _atom_site_type_symbol
 _atom_site_label
 _atom_site_symmetry_multiplicity
 _atom_site_fract_x
 _atom_site_fract_y
 _atom_site_fract_z
 _atom_site_occupancy
  K  K0  1  0.50000000  0.50000000  0.25000000  1
  K  K1  1  0.50000000  0.50000000  0.75000000  1
  K  K2  1  0.00000000  0.00000000  0.00000000  1
  K  K3  1  0.00000000  0.00000000  0.50000000  1
  K  K4  1  0.00000000  0.50000000  0.15064900  1
  K  K5  1  0.50000000  0.00000000  0.65064900  1
  K  K6  1  0.00000000  0.50000000  0.84935100  1
  K  K7  1  0.50000000  0.00000000  0.34935100  1
  Na  Na8  1  0.36215300  0.32465600  0.00000000  1
  Na  Na9  1  0.63784700  0.67534400  0.00000000  1
  Na  Na10  1  0.67534400  0.36215300  0.50000000  1
  Na  Na11  1  0.32465600  0.63784700  0.50000000  1
  H  H12  1  0.16494000  0.14224600  0.22131900  1
  H  H13  1  0.83506000  0.85775400  0.22131900  1
  H  H14  1  0.85775400  0.16494000  0.72131900  1
  H  H15  1  0.14224600  0.83506000  0.72131900  1
  H  H16  1  0.83506000  0.85775400  0.77868100  1
  H  H17  1  0.16494000  0.14224600  0.77868100  1
  H  H18  1  0.14224600  0.83506000  0.27868100  1
  H  H19  1  0.85775400  0.16494000  0.27868100  1
  H  H20  1  0.33047200  0.04807200  0.15029400  1
  H  H21  1  0.66952800  0.95192800  0.15029400  1
  H  H22  1  0.95192800  0.33047200  0.65029400  1
  H  H23  1  0.04807200  0.66952800  0.65029400  1
  H  H24  1  0.66952800  0.95192800  0.84970600  1
  H  H25  1  0.33047200  0.04807200  0.84970600  1
  H  H26  1  0.04807200  0.66952800  0.34970600  1
  H  H27  1  0.95192800  0.33047200  0.34970600  1
  H  H28  1  0.70421000  0.24330900  0.06484800  1
  H  H29  1  0.29579000  0.75669100  0.06484800  1
  H  H30  1  0.75669100  0.70421000  0.56484800  1
  H  H31  1  0.24330900  0.29579000  0.56484800  1
  H  H32  1  0.29579000  0.75669100  0.93515200  1
  H  H33  1  0.70421000  0.24330900  0.93515200  1
  H  H34  1  0.24330900  0.29579000  0.43515200  1
  H  H35  1  0.75669100  0.70421000  0.43515200  1
  N  N36  1  0.72187800  0.33335100  0.00000000  1
  N  N37  1  0.27812200  0.66664900  0.00000000  1
  N  N38  1  0.66664900  0.72187800  0.50000000  1
  N  N39  1  0.33335100  0.27812200  0.50000000  1
  N  N40  1  0.26957200  0.17816100  0.16704800  1
  N  N41  1  0.73042800  0.82183900  0.16704800  1
  N  N42  1  0.82183900  0.26957200  0.66704800  1
  N  N43  1  0.17816100  0.73042800  0.66704800  1
  N  N44  1  0.73042800  0.82183900  0.83295200  1
  N  N45  1  0.26957200  0.17816100  0.83295200  1
  N  N46  1  0.17816100  0.73042800  0.33295200  1
  N  N47  1  0.82183900  0.26957200  0.33295200  1
