# generated using pymatgen
data_PuAu3
_symmetry_space_group_name_H-M   'P 1'
_cell_length_a   6.37366765
_cell_length_b   6.37366765
_cell_length_c   4.85632700
_cell_angle_alpha   90.00000000
_cell_angle_beta   90.00000000
_cell_angle_gamma   119.99999637
_symmetry_Int_Tables_number   1
_chemical_formula_structural   PuAu3
_chemical_formula_sum   'Pu2 Au6'
_cell_volume   170.85094977
_cell_formula_units_Z   2
loop_
 _symmetry_equiv_pos_site_id
 _symmetry_equiv_pos_as_xyz
  1  'x, y, z'
loop_
 _atom_site_type_symbol
 _atom_site_label
 _atom_site_symmetry_multiplicity
 _atom_site_fract_x
 _atom_site_fract_y
 _atom_site_fract_z
 _atom_site_occupancy
  Pu  Pu0  1  0.33333300  0.66666700  0.75000000  1
  Pu  Pu1  1  0.66666700  0.33333300  0.25000000  1
  Au  Au2  1  0.15915800  0.31831700  0.25000000  1
  Au  Au3  1  0.68168300  0.84084200  0.25000000  1
  Au  Au4  1  0.15915800  0.84084200  0.25000000  1
  Au  Au5  1  0.84084200  0.68168300  0.75000000  1
  Au  Au6  1  0.31831700  0.15915800  0.75000000  1
  Au  Au7  1  0.84084200  0.15915800  0.75000000  1
