# generated using pymatgen
data_Ga2O3
_symmetry_space_group_name_H-M   'P 1'
_cell_length_a   6.41420500
_cell_length_b   6.41420500
_cell_length_c   5.87615358
_cell_angle_alpha   76.72488020
_cell_angle_beta   76.72488020
_cell_angle_gamma   27.81126516
_symmetry_Int_Tables_number   1
_chemical_formula_structural   Ga2O3
_chemical_formula_sum   'Ga4 O6'
_cell_volume   109.59276320
_cell_formula_units_Z   2
loop_
 _symmetry_equiv_pos_site_id
 _symmetry_equiv_pos_as_xyz
  1  'x, y, z'
loop_
 _atom_site_type_symbol
 _atom_site_label
 _atom_site_symmetry_multiplicity
 _atom_site_fract_x
 _atom_site_fract_y
 _atom_site_fract_z
 _atom_site_occupancy
  Ga  Ga0  1  0.65841000  0.65841000  0.68591800  1
  Ga  Ga1  1  0.34159000  0.34159000  0.31408200  1
  Ga  Ga2  1  0.08987800  0.08987800  0.20523900  1
  Ga  Ga3  1  0.91012200  0.91012200  0.79476100  1
  O  O4  1  0.49589700  0.49589700  0.74350900  1
  O  O5  1  0.50410300  0.50410300  0.25649100  1
  O  O6  1  0.17359800  0.17359800  0.43570600  1
  O  O7  1  0.82640200  0.82640200  0.56429400  1
  O  O8  1  0.83649700  0.83649700  0.10895300  1
  O  O9  1  0.16350300  0.16350300  0.89104700  1
