# generated using pymatgen
data_Ho2O3
_symmetry_space_group_name_H-M   'P 1'
_cell_length_a   9.18903529
_cell_length_b   9.18903529
_cell_length_c   9.18903529
_cell_angle_alpha   109.47122063
_cell_angle_beta   109.47122063
_cell_angle_gamma   109.47122063
_symmetry_Int_Tables_number   1
_chemical_formula_structural   Ho2O3
_chemical_formula_sum   'Ho16 O24'
_cell_volume   597.29360909
_cell_formula_units_Z   8
loop_
 _symmetry_equiv_pos_site_id
 _symmetry_equiv_pos_as_xyz
  1  'x, y, z'
loop_
 _atom_site_type_symbol
 _atom_site_label
 _atom_site_symmetry_multiplicity
 _atom_site_fract_x
 _atom_site_fract_y
 _atom_site_fract_z
 _atom_site_occupancy
  Ho  Ho0  1  0.78267300  0.03267300  0.75000000  1
  Ho  Ho1  1  0.25000000  0.71732700  0.46732700  1
  Ho  Ho2  1  0.46732700  0.25000000  0.71732700  1
  Ho  Ho3  1  0.75000000  0.78267300  0.03267300  1
  Ho  Ho4  1  0.03267300  0.75000000  0.78267300  1
  Ho  Ho5  1  0.71732700  0.46732700  0.25000000  1
  Ho  Ho6  1  0.28267300  0.53267300  0.75000000  1
  Ho  Ho7  1  0.25000000  0.21732700  0.96732700  1
  Ho  Ho8  1  0.96732700  0.25000000  0.21732700  1
  Ho  Ho9  1  0.75000000  0.28267300  0.53267300  1
  Ho  Ho10  1  0.53267300  0.75000000  0.28267300  1
  Ho  Ho11  1  0.21732700  0.96732700  0.25000000  1
  Ho  Ho12  1  0.50000000  0.00000000  0.00000000  1
  Ho  Ho13  1  0.00000000  0.00000000  0.50000000  1
  Ho  Ho14  1  0.00000000  0.50000000  0.00000000  1
  Ho  Ho15  1  0.50000000  0.50000000  0.50000000  1
  O  O16  1  0.26051500  0.77198900  0.72928000  1
  O  O17  1  0.95729100  0.72801100  0.98852600  1
  O  O18  1  0.23948500  0.96876500  0.51147400  1
  O  O19  1  0.53123500  0.77072000  0.54270900  1
  O  O20  1  0.77072000  0.54270900  0.53123500  1
  O  O21  1  0.72928000  0.26051500  0.77198900  1
  O  O22  1  0.72801100  0.98852600  0.95729100  1
  O  O23  1  0.51147400  0.23948500  0.96876500  1
  O  O24  1  0.77198900  0.72928000  0.26051500  1
  O  O25  1  0.98852600  0.95729100  0.72801100  1
  O  O26  1  0.96876500  0.51147400  0.23948500  1
  O  O27  1  0.54270900  0.53123500  0.77072000  1
  O  O28  1  0.27198900  0.01147400  0.04270900  1
  O  O29  1  0.03123500  0.48852600  0.76051500  1
  O  O30  1  0.22801100  0.27072000  0.73948500  1
  O  O31  1  0.22928000  0.45729100  0.46876500  1
  O  O32  1  0.46876500  0.22928000  0.45729100  1
  O  O33  1  0.27072000  0.73948500  0.22801100  1
  O  O34  1  0.76051500  0.03123500  0.48852600  1
  O  O35  1  0.01147400  0.04270900  0.27198900  1
  O  O36  1  0.73948500  0.22801100  0.27072000  1
  O  O37  1  0.48852600  0.76051500  0.03123500  1
  O  O38  1  0.04270900  0.27198900  0.01147400  1
  O  O39  1  0.45729100  0.46876500  0.22928000  1
