# generated using pymatgen
data_RbAgO
_symmetry_space_group_name_H-M   'P 1'
_cell_length_a   7.81989054
_cell_length_b   7.81989054
_cell_length_c   7.81989054
_cell_angle_alpha   98.19099430
_cell_angle_beta   98.19099430
_cell_angle_gamma   135.64756587
_symmetry_Int_Tables_number   1
_chemical_formula_structural   RbAgO
_chemical_formula_sum   'Rb4 Ag4 O4'
_cell_volume   309.56116459
_cell_formula_units_Z   4
loop_
 _symmetry_equiv_pos_site_id
 _symmetry_equiv_pos_as_xyz
  1  'x, y, z'
loop_
 _atom_site_type_symbol
 _atom_site_label
 _atom_site_symmetry_multiplicity
 _atom_site_fract_x
 _atom_site_fract_y
 _atom_site_fract_z
 _atom_site_occupancy
  Rb  Rb0  1  0.81491600  0.50000000  0.31491600  1
  Rb  Rb1  1  0.50000000  0.18508400  0.68508400  1
  Rb  Rb2  1  0.50000000  0.81491600  0.31491600  1
  Rb  Rb3  1  0.18508400  0.50000000  0.68508400  1
  Ag  Ag4  1  0.85573400  0.85573400  0.71146800  1
  Ag  Ag5  1  0.85573400  0.14426600  0.00000000  1
  Ag  Ag6  1  0.14426600  0.85573400  0.00000000  1
  Ag  Ag7  1  0.14426600  0.14426600  0.28853200  1
  O  O8  1  0.28815500  0.00000000  0.28815500  1
  O  O9  1  0.00000000  0.71184500  0.71184500  1
  O  O10  1  0.00000000  0.28815500  0.28815500  1
  O  O11  1  0.71184500  0.00000000  0.71184500  1
