# generated using pymatgen
data_Ag7PSe6
_symmetry_space_group_name_H-M   'P 1'
_cell_length_a   10.96378300
_cell_length_b   10.96378300
_cell_length_c   10.96378300
_cell_angle_alpha   90.00000000
_cell_angle_beta   90.00000000
_cell_angle_gamma   90.00000000
_symmetry_Int_Tables_number   1
_chemical_formula_structural   Ag7PSe6
_chemical_formula_sum   'Ag28 P4 Se24'
_cell_volume   1317.89646664
_cell_formula_units_Z   4
loop_
 _symmetry_equiv_pos_site_id
 _symmetry_equiv_pos_as_xyz
  1  'x, y, z'
loop_
 _atom_site_type_symbol
 _atom_site_label
 _atom_site_symmetry_multiplicity
 _atom_site_fract_x
 _atom_site_fract_y
 _atom_site_fract_z
 _atom_site_occupancy
  Ag  Ag0  1  0.07007300  0.89296600  0.72779400  1
  Ag  Ag1  1  0.72779400  0.07007300  0.89296600  1
  Ag  Ag2  1  0.89296600  0.72779400  0.07007300  1
  Ag  Ag3  1  0.60703400  0.27220600  0.57007300  1
  Ag  Ag4  1  0.22779400  0.42992700  0.10703400  1
  Ag  Ag5  1  0.10703400  0.22779400  0.42992700  1
  Ag  Ag6  1  0.77220600  0.92992700  0.39296600  1
  Ag  Ag7  1  0.27220600  0.57007300  0.60703400  1
  Ag  Ag8  1  0.39296600  0.77220600  0.92992700  1
  Ag  Ag9  1  0.57007300  0.60703400  0.27220600  1
  Ag  Ag10  1  0.92992700  0.39296600  0.77220600  1
  Ag  Ag11  1  0.42992700  0.10703400  0.22779400  1
  Ag  Ag12  1  0.01040700  0.01841500  0.27897300  1
  Ag  Ag13  1  0.27897300  0.01040700  0.01841500  1
  Ag  Ag14  1  0.01841500  0.27897300  0.01040700  1
  Ag  Ag15  1  0.48158500  0.72102700  0.51040700  1
  Ag  Ag16  1  0.77897300  0.48959300  0.98158500  1
  Ag  Ag17  1  0.98158500  0.77897300  0.48959300  1
  Ag  Ag18  1  0.22102700  0.98959300  0.51841500  1
  Ag  Ag19  1  0.72102700  0.51040700  0.48158500  1
  Ag  Ag20  1  0.51841500  0.22102700  0.98959300  1
  Ag  Ag21  1  0.51040700  0.48158500  0.72102700  1
  Ag  Ag22  1  0.98959300  0.51841500  0.22102700  1
  Ag  Ag23  1  0.48959300  0.98158500  0.77897300  1
  Ag  Ag24  1  0.34475000  0.34475000  0.34475000  1
  Ag  Ag25  1  0.15525000  0.65525000  0.84475000  1
  Ag  Ag26  1  0.84475000  0.15525000  0.65525000  1
  Ag  Ag27  1  0.65525000  0.84475000  0.15525000  1
  P  P28  1  0.74542300  0.74542300  0.74542300  1
  P  P29  1  0.75457700  0.25457700  0.24542300  1
  P  P30  1  0.24542300  0.75457700  0.25457700  1
  P  P31  1  0.25457700  0.24542300  0.75457700  1
  Se  Se32  1  0.86536300  0.86536300  0.86536300  1
  Se  Se33  1  0.63463700  0.13463700  0.36536300  1
  Se  Se34  1  0.36536300  0.63463700  0.13463700  1
  Se  Se35  1  0.13463700  0.36536300  0.63463700  1
  Se  Se36  1  0.36080100  0.36765600  0.88005200  1
  Se  Se37  1  0.88005200  0.36080100  0.36765600  1
  Se  Se38  1  0.36765600  0.88005200  0.36080100  1
  Se  Se39  1  0.13234400  0.11994800  0.86080100  1
  Se  Se40  1  0.38005200  0.13919900  0.63234400  1
  Se  Se41  1  0.63234400  0.38005200  0.13919900  1
  Se  Se42  1  0.61994800  0.63919900  0.86765600  1
  Se  Se43  1  0.11994800  0.86080100  0.13234400  1
  Se  Se44  1  0.86765600  0.61994800  0.63919900  1
  Se  Se45  1  0.86080100  0.13234400  0.11994800  1
  Se  Se46  1  0.63919900  0.86765600  0.61994800  1
  Se  Se47  1  0.13919900  0.63234400  0.38005200  1
  Se  Se48  1  0.21173000  0.21173000  0.21173000  1
  Se  Se49  1  0.28827000  0.78827000  0.71173000  1
  Se  Se50  1  0.71173000  0.28827000  0.78827000  1
  Se  Se51  1  0.78827000  0.71173000  0.28827000  1
  Se  Se52  1  0.47930600  0.47930600  0.47930600  1
  Se  Se53  1  0.02069400  0.52069400  0.97930600  1
  Se  Se54  1  0.97930600  0.02069400  0.52069400  1
  Se  Se55  1  0.52069400  0.97930600  0.02069400  1
