# generated using pymatgen
data_Ho4Ni13C4
_symmetry_space_group_name_H-M   'P 1'
_cell_length_a   8.33538812
_cell_length_b   8.33538812
_cell_length_c   3.83536400
_cell_angle_alpha   90.00000000
_cell_angle_beta   90.00000000
_cell_angle_gamma   91.24696891
_symmetry_Int_Tables_number   1
_chemical_formula_structural   Ho4Ni13C4
_chemical_formula_sum   'Ho4 Ni13 C4'
_cell_volume   266.41297925
_cell_formula_units_Z   1
loop_
 _symmetry_equiv_pos_site_id
 _symmetry_equiv_pos_as_xyz
  1  'x, y, z'
loop_
 _atom_site_type_symbol
 _atom_site_label
 _atom_site_symmetry_multiplicity
 _atom_site_fract_x
 _atom_site_fract_y
 _atom_site_fract_z
 _atom_site_occupancy
  Ho  Ho0  1  0.34869500  0.34869500  0.50000000  1
  Ho  Ho1  1  0.65130500  0.65130500  0.50000000  1
  Ho  Ho2  1  0.81314100  0.18685900  0.50000000  1
  Ho  Ho3  1  0.18685900  0.81314100  0.50000000  1
  Ni  Ni4  1  0.00000000  0.00000000  0.00000000  1
  Ni  Ni5  1  0.21569900  0.56957600  0.00000000  1
  Ni  Ni6  1  0.78430100  0.43042400  0.00000000  1
  Ni  Ni7  1  0.43042400  0.78430100  0.00000000  1
  Ni  Ni8  1  0.56957600  0.21569900  0.00000000  1
  Ni  Ni9  1  0.00000000  0.50000000  0.50000000  1
  Ni  Ni10  1  0.50000000  0.00000000  0.50000000  1
  Ni  Ni11  1  0.07469200  0.29138100  0.00000000  1
  Ni  Ni12  1  0.92530800  0.70861900  0.00000000  1
  Ni  Ni13  1  0.70861900  0.92530800  0.00000000  1
  Ni  Ni14  1  0.29138100  0.07469200  0.00000000  1
  Ni  Ni15  1  0.12398500  0.12398500  0.50000000  1
  Ni  Ni16  1  0.87601500  0.87601500  0.50000000  1
  C  C17  1  0.44323800  0.55676200  0.00000000  1
  C  C18  1  0.55676200  0.44323800  0.00000000  1
  C  C19  1  0.00000000  0.50000000  0.00000000  1
  C  C20  1  0.50000000  0.00000000  0.00000000  1
