# generated using pymatgen
data_Mg(BeAs)2
_symmetry_space_group_name_H-M   'P 1'
_cell_length_a   3.79643015
_cell_length_b   3.79643015
_cell_length_c   6.46391200
_cell_angle_alpha   90.00000000
_cell_angle_beta   90.00000000
_cell_angle_gamma   120.00000266
_symmetry_Int_Tables_number   1
_chemical_formula_structural   Mg(BeAs)2
_chemical_formula_sum   'Mg1 Be2 As2'
_cell_volume   80.68204240
_cell_formula_units_Z   1
loop_
 _symmetry_equiv_pos_site_id
 _symmetry_equiv_pos_as_xyz
  1  'x, y, z'
loop_
 _atom_site_type_symbol
 _atom_site_label
 _atom_site_symmetry_multiplicity
 _atom_site_fract_x
 _atom_site_fract_y
 _atom_site_fract_z
 _atom_site_occupancy
  Mg  Mg0  1  0.00000000  0.00000000  0.00000000  1
  Be  Be1  1  0.66666700  0.33333300  0.37461800  1
  Be  Be2  1  0.33333300  0.66666700  0.62538200  1
  As  As3  1  0.33333300  0.66666700  0.26424700  1
  As  As4  1  0.66666700  0.33333300  0.73575300  1
