# generated using pymatgen
data_LuNi5Sn
_symmetry_space_group_name_H-M   'P 1'
_cell_length_a   4.82242500
_cell_length_b   7.99034100
_cell_length_c   10.20599500
_cell_angle_alpha   90.00000000
_cell_angle_beta   90.00000000
_cell_angle_gamma   90.00000000
_symmetry_Int_Tables_number   1
_chemical_formula_structural   LuNi5Sn
_chemical_formula_sum   'Lu4 Ni20 Sn4'
_cell_volume   393.26577027
_cell_formula_units_Z   4
loop_
 _symmetry_equiv_pos_site_id
 _symmetry_equiv_pos_as_xyz
  1  'x, y, z'
loop_
 _atom_site_type_symbol
 _atom_site_label
 _atom_site_symmetry_multiplicity
 _atom_site_fract_x
 _atom_site_fract_y
 _atom_site_fract_z
 _atom_site_occupancy
  Lu  Lu0  1  0.75000000  0.24642700  0.56061300  1
  Lu  Lu1  1  0.25000000  0.25357300  0.06061300  1
  Lu  Lu2  1  0.75000000  0.74642700  0.93938700  1
  Lu  Lu3  1  0.25000000  0.75357300  0.43938700  1
  Ni  Ni4  1  0.75000000  0.91352600  0.48288300  1
  Ni  Ni5  1  0.25000000  0.58647400  0.98288300  1
  Ni  Ni6  1  0.75000000  0.41352600  0.01711700  1
  Ni  Ni7  1  0.25000000  0.08647400  0.51711700  1
  Ni  Ni8  1  0.25000000  0.18897500  0.74214600  1
  Ni  Ni9  1  0.75000000  0.31102500  0.24214600  1
  Ni  Ni10  1  0.25000000  0.68897500  0.75785400  1
  Ni  Ni11  1  0.75000000  0.81102500  0.25785400  1
  Ni  Ni12  1  0.75000000  0.54682400  0.40243000  1
  Ni  Ni13  1  0.25000000  0.95317600  0.90243000  1
  Ni  Ni14  1  0.75000000  0.04682400  0.09757000  1
  Ni  Ni15  1  0.25000000  0.45317600  0.59757000  1
  Ni  Ni16  1  0.49870900  0.06650300  0.30926000  1
  Ni  Ni17  1  0.50129100  0.43349700  0.80926000  1
  Ni  Ni18  1  0.00129100  0.56650300  0.19074000  1
  Ni  Ni19  1  0.99870900  0.93349700  0.69074000  1
  Ni  Ni20  1  0.50129100  0.93349700  0.69074000  1
  Ni  Ni21  1  0.49870900  0.56650300  0.19074000  1
  Ni  Ni22  1  0.99870900  0.43349700  0.80926000  1
  Ni  Ni23  1  0.00129100  0.06650300  0.30926000  1
  Sn  Sn24  1  0.75000000  0.63937600  0.63940100  1
  Sn  Sn25  1  0.25000000  0.86062400  0.13940100  1
  Sn  Sn26  1  0.75000000  0.13937600  0.86059900  1
  Sn  Sn27  1  0.25000000  0.36062400  0.36059900  1
