# generated using pymatgen
data_Rb4Sb2O5
_symmetry_space_group_name_H-M   'P 1'
_cell_length_a   6.73157100
_cell_length_b   8.26771400
_cell_length_c   19.47827900
_cell_angle_alpha   90.00000000
_cell_angle_beta   90.00000000
_cell_angle_gamma   90.00000000
_symmetry_Int_Tables_number   1
_chemical_formula_structural   Rb4Sb2O5
_chemical_formula_sum   'Rb16 Sb8 O20'
_cell_volume   1084.05784825
_cell_formula_units_Z   4
loop_
 _symmetry_equiv_pos_site_id
 _symmetry_equiv_pos_as_xyz
  1  'x, y, z'
loop_
 _atom_site_type_symbol
 _atom_site_label
 _atom_site_symmetry_multiplicity
 _atom_site_fract_x
 _atom_site_fract_y
 _atom_site_fract_z
 _atom_site_occupancy
  Rb  Rb0  1  0.25000000  0.62490500  0.84221600  1
  Rb  Rb1  1  0.25000000  0.62499000  0.51173200  1
  Rb  Rb2  1  0.75000000  0.62500400  0.98764700  1
  Rb  Rb3  1  0.75000000  0.62508900  0.65699500  1
  Rb  Rb4  1  0.25000000  0.87501000  0.01173200  1
  Rb  Rb5  1  0.25000000  0.87509500  0.34221600  1
  Rb  Rb6  1  0.75000000  0.87491100  0.15699500  1
  Rb  Rb7  1  0.75000000  0.87499600  0.48764700  1
  Rb  Rb8  1  0.75000000  0.12490500  0.65778400  1
  Rb  Rb9  1  0.25000000  0.12508900  0.84300500  1
  Rb  Rb10  1  0.75000000  0.12499000  0.98826800  1
  Rb  Rb11  1  0.25000000  0.12500400  0.51235300  1
  Rb  Rb12  1  0.25000000  0.37491100  0.34300500  1
  Rb  Rb13  1  0.75000000  0.37501000  0.48826800  1
  Rb  Rb14  1  0.25000000  0.37499600  0.01235300  1
  Rb  Rb15  1  0.75000000  0.37509500  0.15778400  1
  Sb  Sb16  1  0.25000000  0.61563300  0.16493400  1
  Sb  Sb17  1  0.75000000  0.63437500  0.33506000  1
  Sb  Sb18  1  0.75000000  0.86562500  0.83506000  1
  Sb  Sb19  1  0.25000000  0.88436700  0.66493400  1
  Sb  Sb20  1  0.75000000  0.11563300  0.33506600  1
  Sb  Sb21  1  0.25000000  0.13437500  0.16494000  1
  Sb  Sb22  1  0.25000000  0.36562500  0.66494000  1
  Sb  Sb23  1  0.75000000  0.38436700  0.83506600  1
  O  O24  1  0.52962900  0.62518600  0.39977000  1
  O  O25  1  0.02963100  0.62483600  0.10023900  1
  O  O26  1  0.75000000  0.62503900  0.80788100  1
  O  O27  1  0.47036900  0.62483600  0.10023900  1
  O  O28  1  0.97037100  0.62518600  0.39977000  1
  O  O29  1  0.52962900  0.87481400  0.89977000  1
  O  O30  1  0.75000000  0.87496100  0.30788100  1
  O  O31  1  0.47036900  0.87516400  0.60023900  1
  O  O32  1  0.02963100  0.87516400  0.60023900  1
  O  O33  1  0.97037100  0.87481400  0.89977000  1
  O  O34  1  0.02962900  0.12518600  0.10023000  1
  O  O35  1  0.47037100  0.12518600  0.10023000  1
  O  O36  1  0.97036900  0.12483600  0.39976100  1
  O  O37  1  0.52963100  0.12483600  0.39976100  1
  O  O38  1  0.25000000  0.12503900  0.69211900  1
  O  O39  1  0.02962900  0.37481400  0.60023000  1
  O  O40  1  0.47037100  0.37481400  0.60023000  1
  O  O41  1  0.52963100  0.37516400  0.89976100  1
  O  O42  1  0.97036900  0.37516400  0.89976100  1
  O  O43  1  0.25000000  0.37496100  0.19211900  1
