# generated using pymatgen
data_Ba(GaS2)2
_symmetry_space_group_name_H-M   'P 1'
_cell_length_a   12.84023300
_cell_length_b   12.84023300
_cell_length_c   12.84023300
_cell_angle_alpha   90.00000000
_cell_angle_beta   90.00000000
_cell_angle_gamma   90.00000000
_symmetry_Int_Tables_number   1
_chemical_formula_structural   Ba(GaS2)2
_chemical_formula_sum   'Ba12 Ga24 S48'
_cell_volume   2116.98954715
_cell_formula_units_Z   12
loop_
 _symmetry_equiv_pos_site_id
 _symmetry_equiv_pos_as_xyz
  1  'x, y, z'
loop_
 _atom_site_type_symbol
 _atom_site_label
 _atom_site_symmetry_multiplicity
 _atom_site_fract_x
 _atom_site_fract_y
 _atom_site_fract_z
 _atom_site_occupancy
  Ba  Ba0  1  0.00000000  0.00000000  0.00000000  1
  Ba  Ba1  1  0.00000000  0.50000000  0.50000000  1
  Ba  Ba2  1  0.12809400  0.87190600  0.37190600  1
  Ba  Ba3  1  0.12809400  0.62809400  0.87190600  1
  Ba  Ba4  1  0.37190600  0.37190600  0.37190600  1
  Ba  Ba5  1  0.37190600  0.12809400  0.87190600  1
  Ba  Ba6  1  0.50000000  0.00000000  0.50000000  1
  Ba  Ba7  1  0.50000000  0.50000000  0.00000000  1
  Ba  Ba8  1  0.62809400  0.87190600  0.12809400  1
  Ba  Ba9  1  0.62809400  0.62809400  0.62809400  1
  Ba  Ba10  1  0.87190600  0.12809400  0.62809400  1
  Ba  Ba11  1  0.87190600  0.37190600  0.12809400  1
  Ga  Ga12  1  0.12673700  0.19572900  0.35692100  1
  Ga  Ga13  1  0.12673700  0.30427100  0.85692100  1
  Ga  Ga14  1  0.14307900  0.62673700  0.19572900  1
  Ga  Ga15  1  0.14307900  0.87326300  0.69572900  1
  Ga  Ga16  1  0.19572900  0.14307900  0.62673700  1
  Ga  Ga17  1  0.19572900  0.35692100  0.12673700  1
  Ga  Ga18  1  0.30427100  0.85692100  0.12673700  1
  Ga  Ga19  1  0.30427100  0.64307900  0.62673700  1
  Ga  Ga20  1  0.35692100  0.12673700  0.19572900  1
  Ga  Ga21  1  0.35692100  0.37326300  0.69572900  1
  Ga  Ga22  1  0.37326300  0.69572900  0.35692100  1
  Ga  Ga23  1  0.37326300  0.80427100  0.85692100  1
  Ga  Ga24  1  0.62673700  0.19572900  0.14307900  1
  Ga  Ga25  1  0.62673700  0.30427100  0.64307900  1
  Ga  Ga26  1  0.64307900  0.62673700  0.30427100  1
  Ga  Ga27  1  0.64307900  0.87326300  0.80427100  1
  Ga  Ga28  1  0.69572900  0.14307900  0.87326300  1
  Ga  Ga29  1  0.69572900  0.35692100  0.37326300  1
  Ga  Ga30  1  0.80427100  0.64307900  0.87326300  1
  Ga  Ga31  1  0.80427100  0.85692100  0.37326300  1
  Ga  Ga32  1  0.85692100  0.12673700  0.30427100  1
  Ga  Ga33  1  0.85692100  0.37326300  0.80427100  1
  Ga  Ga34  1  0.87326300  0.69572900  0.14307900  1
  Ga  Ga35  1  0.87326300  0.80427100  0.64307900  1
  S  S36  1  0.02657200  0.07679800  0.27053500  1
  S  S37  1  0.02657200  0.42320200  0.77053500  1
  S  S38  1  0.07679800  0.27053500  0.02657200  1
  S  S39  1  0.07679800  0.22946500  0.52657200  1
  S  S40  1  0.12785000  0.36231600  0.29325100  1
  S  S41  1  0.12785000  0.13768400  0.79325100  1
  S  S42  1  0.13768400  0.79325100  0.12785000  1
  S  S43  1  0.13768400  0.70674900  0.62785000  1
  S  S44  1  0.20674900  0.62785000  0.36231600  1
  S  S45  1  0.20674900  0.87215000  0.86231600  1
  S  S46  1  0.22946500  0.52657200  0.07679800  1
  S  S47  1  0.22946500  0.97342800  0.57679800  1
  S  S48  1  0.27053500  0.02657200  0.07679800  1
  S  S49  1  0.27053500  0.47342800  0.57679800  1
  S  S50  1  0.29325100  0.12785000  0.36231600  1
  S  S51  1  0.29325100  0.37215000  0.86231600  1
  S  S52  1  0.36231600  0.29325100  0.12785000  1
  S  S53  1  0.36231600  0.20674900  0.62785000  1
  S  S54  1  0.37215000  0.86231600  0.29325100  1
  S  S55  1  0.37215000  0.63768400  0.79325100  1
  S  S56  1  0.42320200  0.72946500  0.52657200  1
  S  S57  1  0.42320200  0.77053500  0.02657200  1
  S  S58  1  0.47342800  0.57679800  0.27053500  1
  S  S59  1  0.47342800  0.92320200  0.77053500  1
  S  S60  1  0.52657200  0.07679800  0.22946500  1
  S  S61  1  0.52657200  0.42320200  0.72946500  1
  S  S62  1  0.57679800  0.27053500  0.47342800  1
  S  S63  1  0.57679800  0.22946500  0.97342800  1
  S  S64  1  0.62785000  0.36231600  0.20674900  1
  S  S65  1  0.62785000  0.13768400  0.70674900  1
  S  S66  1  0.63768400  0.70674900  0.87215000  1
  S  S67  1  0.63768400  0.79325100  0.37215000  1
  S  S68  1  0.70674900  0.62785000  0.13768400  1
  S  S69  1  0.70674900  0.87215000  0.63768400  1
  S  S70  1  0.72946500  0.52657200  0.42320200  1
  S  S71  1  0.72946500  0.97342800  0.92320200  1
  S  S72  1  0.77053500  0.02657200  0.42320200  1
  S  S73  1  0.77053500  0.47342800  0.92320200  1
  S  S74  1  0.79325100  0.12785000  0.13768400  1
  S  S75  1  0.79325100  0.37215000  0.63768400  1
  S  S76  1  0.86231600  0.20674900  0.87215000  1
  S  S77  1  0.86231600  0.29325100  0.37215000  1
  S  S78  1  0.87215000  0.63768400  0.70674900  1
  S  S79  1  0.87215000  0.86231600  0.20674900  1
  S  S80  1  0.92320200  0.72946500  0.97342800  1
  S  S81  1  0.92320200  0.77053500  0.47342800  1
  S  S82  1  0.97342800  0.57679800  0.22946500  1
  S  S83  1  0.97342800  0.92320200  0.72946500  1
