# generated using pymatgen
data_Er2(Ga3Co)3
_symmetry_space_group_name_H-M   'P 1'
_cell_length_a   7.33344234
_cell_length_b   7.33344234
_cell_length_c   9.35787600
_cell_angle_alpha   90.00000000
_cell_angle_beta   90.00000000
_cell_angle_gamma   119.79510662
_symmetry_Int_Tables_number   1
_chemical_formula_structural   Er2(Ga3Co)3
_chemical_formula_sum   'Er4 Ga18 Co6'
_cell_volume   436.73364072
_cell_formula_units_Z   2
loop_
 _symmetry_equiv_pos_site_id
 _symmetry_equiv_pos_as_xyz
  1  'x, y, z'
loop_
 _atom_site_type_symbol
 _atom_site_label
 _atom_site_symmetry_multiplicity
 _atom_site_fract_x
 _atom_site_fract_y
 _atom_site_fract_z
 _atom_site_occupancy
  Er  Er0  1  0.50296400  0.83116600  0.75000000  1
  Er  Er1  1  0.49703600  0.16883400  0.25000000  1
  Er  Er2  1  0.16883400  0.49703600  0.25000000  1
  Er  Er3  1  0.83116600  0.50296400  0.75000000  1
  Ga  Ga4  1  0.16336700  0.94835700  0.75000000  1
  Ga  Ga5  1  0.83663300  0.05164300  0.25000000  1
  Ga  Ga6  1  0.05164300  0.83663300  0.25000000  1
  Ga  Ga7  1  0.94835700  0.16336700  0.75000000  1
  Ga  Ga8  1  0.62039200  0.62039200  0.25000000  1
  Ga  Ga9  1  0.37960800  0.37960800  0.75000000  1
  Ga  Ga10  1  0.16670000  0.16670000  0.05909900  1
  Ga  Ga11  1  0.83330000  0.83330000  0.55909900  1
  Ga  Ga12  1  0.83330000  0.83330000  0.94090100  1
  Ga  Ga13  1  0.16670000  0.16670000  0.44090100  1
  Ga  Ga14  1  0.49949700  0.83429700  0.07326200  1
  Ga  Ga15  1  0.50050300  0.16570300  0.57326200  1
  Ga  Ga16  1  0.16570300  0.50050300  0.92673800  1
  Ga  Ga17  1  0.83429700  0.49949700  0.42673800  1
  Ga  Ga18  1  0.50050300  0.16570300  0.92673800  1
  Ga  Ga19  1  0.49949700  0.83429700  0.42673800  1
  Ga  Ga20  1  0.83429700  0.49949700  0.07326200  1
  Ga  Ga21  1  0.16570300  0.50050300  0.57326200  1
  Co  Co22  1  0.17118600  0.82881400  0.00000000  1
  Co  Co23  1  0.50000000  0.50000000  0.50000000  1
  Co  Co24  1  0.50000000  0.50000000  0.00000000  1
  Co  Co25  1  0.82881400  0.17118600  0.50000000  1
  Co  Co26  1  0.82881400  0.17118600  0.00000000  1
  Co  Co27  1  0.17118600  0.82881400  0.50000000  1
