# generated using pymatgen
data_CsGe
_symmetry_space_group_name_H-M   'P 1'
_cell_length_a   12.62380065
_cell_length_b   12.62380065
_cell_length_c   12.62380065
_cell_angle_alpha   124.66897060
_cell_angle_beta   124.66897060
_cell_angle_gamma   82.08705155
_symmetry_Int_Tables_number   1
_chemical_formula_structural   CsGe
_chemical_formula_sum   'Cs16 Ge16'
_cell_volume   1308.39096541
_cell_formula_units_Z   16
loop_
 _symmetry_equiv_pos_site_id
 _symmetry_equiv_pos_as_xyz
  1  'x, y, z'
loop_
 _atom_site_type_symbol
 _atom_site_label
 _atom_site_symmetry_multiplicity
 _atom_site_fract_x
 _atom_site_fract_y
 _atom_site_fract_z
 _atom_site_occupancy
  Cs  Cs0  1  0.12500000  0.51647800  0.89147800  1
  Cs  Cs1  1  0.62500000  0.23352200  0.10852200  1
  Cs  Cs2  1  0.98352200  0.37500000  0.10852200  1
  Cs  Cs3  1  0.26647800  0.87500000  0.89147800  1
  Cs  Cs4  1  0.62500000  0.73352200  0.60852200  1
  Cs  Cs5  1  0.12500000  0.01647800  0.39147800  1
  Cs  Cs6  1  0.76647800  0.87500000  0.39147800  1
  Cs  Cs7  1  0.48352200  0.37500000  0.60852200  1
  Cs  Cs8  1  0.36971300  0.36971300  0.23942700  1
  Cs  Cs9  1  0.13028700  0.13028700  0.76057300  1
  Cs  Cs10  1  0.88028700  0.61971300  0.50000000  1
  Cs  Cs11  1  0.11971300  0.38028700  0.50000000  1
  Cs  Cs12  1  0.38028700  0.88028700  0.26057300  1
  Cs  Cs13  1  0.61971300  0.11971300  0.73942700  1
  Cs  Cs14  1  0.86971300  0.63028700  0.00000000  1
  Cs  Cs15  1  0.63028700  0.86971300  0.00000000  1
  Ge  Ge16  1  0.45198300  0.60563700  0.96024000  1
  Ge  Ge17  1  0.64539700  0.49174300  0.03976000  1
  Ge  Ge18  1  0.79801700  0.25825700  0.65365400  1
  Ge  Ge19  1  0.60460300  0.14436300  0.34634600  1
  Ge  Ge20  1  0.89436300  0.04801700  0.03976000  1
  Ge  Ge21  1  0.00825700  0.85460300  0.96024000  1
  Ge  Ge22  1  0.24174300  0.70198300  0.34634600  1
  Ge  Ge23  1  0.35563700  0.89539700  0.65365400  1
  Ge  Ge24  1  0.29801700  0.64436300  0.53976000  1
  Ge  Ge25  1  0.10460300  0.75825700  0.46024000  1
  Ge  Ge26  1  0.95198300  0.99174300  0.84634600  1
  Ge  Ge27  1  0.14539700  0.10563700  0.15365400  1
  Ge  Ge28  1  0.85563700  0.20198300  0.46024000  1
  Ge  Ge29  1  0.74174300  0.39539700  0.53976000  1
  Ge  Ge30  1  0.50825700  0.54801700  0.15365400  1
  Ge  Ge31  1  0.39436300  0.35460300  0.84634600  1
