# generated using pymatgen
data_Ta6Pb4O19
_symmetry_space_group_name_H-M   'P 1'
_cell_length_a   13.03906924
_cell_length_b   13.03906924
_cell_length_c   13.03906924
_cell_angle_alpha   146.48587610
_cell_angle_beta   131.77371694
_cell_angle_gamma   60.00395821
_symmetry_Int_Tables_number   1
_chemical_formula_structural   Ta6Pb4O19
_chemical_formula_sum   'Ta12 Pb8 O38'
_cell_volume   904.52859082
_cell_formula_units_Z   2
loop_
 _symmetry_equiv_pos_site_id
 _symmetry_equiv_pos_as_xyz
  1  'x, y, z'
loop_
 _atom_site_type_symbol
 _atom_site_label
 _atom_site_symmetry_multiplicity
 _atom_site_fract_x
 _atom_site_fract_y
 _atom_site_fract_z
 _atom_site_occupancy
  Ta  Ta0  1  0.83755700  0.83474800  0.00280800  1
  Ta  Ta1  1  0.00000000  0.00000000  0.00000000  1
  Ta  Ta2  1  0.66808000  0.66808000  0.50000000  1
  Ta  Ta3  1  0.33192000  0.33192000  0.50000000  1
  Ta  Ta4  1  0.66808000  0.16808000  0.00000000  1
  Ta  Ta5  1  0.33192000  0.83192000  0.00000000  1
  Ta  Ta6  1  0.33194000  0.33474800  0.99719200  1
  Ta  Ta7  1  0.16244300  0.16525200  0.99719200  1
  Ta  Ta8  1  0.50000000  0.50000000  0.00000000  1
  Ta  Ta9  1  0.00000000  0.00000000  0.50000000  1
  Ta  Ta10  1  0.00000000  0.50000000  0.00000000  1
  Ta  Ta11  1  0.66806000  0.66525200  0.00280800  1
  Pb  Pb12  1  0.85021600  0.33386600  0.51635000  1
  Pb  Pb13  1  0.00000000  0.50000000  0.50000000  1
  Pb  Pb14  1  0.50000000  0.50000000  0.50000000  1
  Pb  Pb15  1  0.50000000  0.00000000  0.00000000  1
  Pb  Pb16  1  0.14978400  0.66613400  0.48365000  1
  Pb  Pb17  1  0.31751600  0.83386600  0.48365000  1
  Pb  Pb18  1  0.50000000  0.00000000  0.50000000  1
  Pb  Pb19  1  0.68248400  0.16613400  0.51635000  1
  O  O20  1  0.14213300  0.82598200  0.92551600  1
  O  O21  1  0.14213300  0.21661700  0.31615100  1
  O  O22  1  0.97129400  0.91634100  0.05495300  1
  O  O23  1  0.65754400  0.25000000  0.40754400  1
  O  O24  1  0.85786700  0.78338300  0.68384900  1
  O  O25  1  0.72681500  0.04457500  0.06458900  1
  O  O26  1  0.85786700  0.17401800  0.07448400  1
  O  O27  1  0.72681500  0.66222600  0.68224000  1
  O  O28  1  0.73426000  0.41921000  0.31505000  1
  O  O29  1  0.60416000  0.91921000  0.68495000  1
  O  O30  1  0.26574000  0.58079000  0.68495000  1
  O  O31  1  0.27318500  0.95542500  0.93541100  1
  O  O32  1  0.47998600  0.54457500  0.31776000  1
  O  O33  1  0.59953400  0.28338300  0.92551600  1
  O  O34  1  0.59953400  0.67401800  0.31615100  1
  O  O35  1  0.47998600  0.16222600  0.93541100  1
  O  O36  1  0.34245600  0.75000000  0.59245600  1
  O  O37  1  0.27318500  0.33777400  0.31776000  1
  O  O38  1  0.31891700  0.25000000  0.06891700  1
  O  O39  1  0.36138800  0.41634100  0.94504700  1
  O  O40  1  0.02870600  0.08365900  0.94504700  1
  O  O41  1  0.18869200  0.12061000  0.68689100  1
  O  O42  1  0.06628000  0.99819800  0.68689100  1
  O  O43  1  0.18869200  0.50180200  0.06808200  1
  O  O44  1  0.40046600  0.71661700  0.07448400  1
  O  O45  1  0.40046600  0.32598200  0.68384900  1
  O  O46  1  0.06628000  0.37939000  0.06808200  1
  O  O47  1  0.06491800  0.75000000  0.31491800  1
  O  O48  1  0.93508200  0.25000000  0.68508200  1
  O  O49  1  0.81130800  0.87939000  0.31310900  1
  O  O50  1  0.81130800  0.49819800  0.93191800  1
  O  O51  1  0.93372000  0.00180200  0.31310900  1
  O  O52  1  0.93372000  0.62061000  0.93191800  1
  O  O53  1  0.63861200  0.58365900  0.05495300  1
  O  O54  1  0.68108300  0.75000000  0.93108300  1
  O  O55  1  0.52001400  0.45542500  0.68224000  1
  O  O56  1  0.52001400  0.83777400  0.06458900  1
  O  O57  1  0.39584000  0.08079000  0.31505000  1
