# generated using pymatgen
data_K2TaCuSe4
_symmetry_space_group_name_H-M   'P 1'
_cell_length_a   14.03645240
_cell_length_b   12.55419607
_cell_length_c   7.48871514
_cell_angle_alpha   84.91470317
_cell_angle_beta   62.98391137
_cell_angle_gamma   32.10138546
_symmetry_Int_Tables_number   1
_chemical_formula_structural   K2TaCuSe4
_chemical_formula_sum   'K4 Ta2 Cu2 Se8'
_cell_volume   487.42512878
_cell_formula_units_Z   2
loop_
 _symmetry_equiv_pos_site_id
 _symmetry_equiv_pos_as_xyz
  1  'x, y, z'
loop_
 _atom_site_type_symbol
 _atom_site_label
 _atom_site_symmetry_multiplicity
 _atom_site_fract_x
 _atom_site_fract_y
 _atom_site_fract_z
 _atom_site_occupancy
  K  K0  1  0.82030600  0.82030600  0.17969400  1
  K  K1  1  0.17969400  0.17969400  0.82030600  1
  K  K2  1  0.42969400  0.42969400  0.07030600  1
  K  K3  1  0.07030600  0.07030600  0.42969400  1
  Ta  Ta4  1  0.00000000  0.00000000  0.00000000  1
  Ta  Ta5  1  0.25000000  0.25000000  0.25000000  1
  Cu  Cu6  1  0.75000000  0.75000000  0.75000000  1
  Cu  Cu7  1  0.50000000  0.50000000  0.50000000  1
  Se  Se8  1  0.16544200  0.44822900  0.53858400  1
  Se  Se9  1  0.40225500  0.71141600  0.80177100  1
  Se  Se10  1  0.71141600  0.40225500  0.08455800  1
  Se  Se11  1  0.80177100  0.08455800  0.40225500  1
  Se  Se12  1  0.53858400  0.84774500  0.16544200  1
  Se  Se13  1  0.44822900  0.16544200  0.84774500  1
  Se  Se14  1  0.08455800  0.80177100  0.71141600  1
  Se  Se15  1  0.84774500  0.53858400  0.44822900  1
