# generated using pymatgen
data_PrCrSe3
_symmetry_space_group_name_H-M   'P 1'
_cell_length_a   3.98428200
_cell_length_b   8.17356200
_cell_length_c   13.79698200
_cell_angle_alpha   90.00000000
_cell_angle_beta   90.00000000
_cell_angle_gamma   90.00000000
_symmetry_Int_Tables_number   1
_chemical_formula_structural   PrCrSe3
_chemical_formula_sum   'Pr4 Cr4 Se12'
_cell_volume   449.30942463
_cell_formula_units_Z   4
loop_
 _symmetry_equiv_pos_site_id
 _symmetry_equiv_pos_as_xyz
  1  'x, y, z'
loop_
 _atom_site_type_symbol
 _atom_site_label
 _atom_site_symmetry_multiplicity
 _atom_site_fract_x
 _atom_site_fract_y
 _atom_site_fract_z
 _atom_site_occupancy
  Pr  Pr0  1  0.25000000  0.90345800  0.32891300  1
  Pr  Pr1  1  0.75000000  0.59654200  0.82891300  1
  Pr  Pr2  1  0.25000000  0.40345800  0.17108700  1
  Pr  Pr3  1  0.75000000  0.09654200  0.67108700  1
  Cr  Cr4  1  0.25000000  0.66110800  0.55154100  1
  Cr  Cr5  1  0.75000000  0.83889200  0.05154100  1
  Cr  Cr6  1  0.25000000  0.16110800  0.94845900  1
  Cr  Cr7  1  0.75000000  0.33889200  0.44845900  1
  Se  Se8  1  0.75000000  0.98631600  0.89183800  1
  Se  Se9  1  0.25000000  0.01368400  0.10816200  1
  Se  Se10  1  0.75000000  0.48631600  0.60816200  1
  Se  Se11  1  0.25000000  0.81025800  0.71177900  1
  Se  Se12  1  0.75000000  0.68974200  0.21177900  1
  Se  Se13  1  0.25000000  0.31025800  0.78822100  1
  Se  Se14  1  0.75000000  0.18974200  0.28822100  1
  Se  Se15  1  0.25000000  0.65749000  0.99666300  1
  Se  Se16  1  0.75000000  0.84251000  0.49666300  1
  Se  Se17  1  0.25000000  0.15749000  0.50333700  1
  Se  Se18  1  0.75000000  0.34251000  0.00333700  1
  Se  Se19  1  0.25000000  0.51368400  0.39183800  1
