# generated using pymatgen
data_Zr6Al16Ru7
_symmetry_space_group_name_H-M   'P 1'
_cell_length_a   8.74778770
_cell_length_b   8.74778770
_cell_length_c   8.74778770
_cell_angle_alpha   60.00000000
_cell_angle_beta   60.00000000
_cell_angle_gamma   60.00000000
_symmetry_Int_Tables_number   1
_chemical_formula_structural   Zr6Al16Ru7
_chemical_formula_sum   'Zr6 Al16 Ru7'
_cell_volume   473.34708323
_cell_formula_units_Z   1
loop_
 _symmetry_equiv_pos_site_id
 _symmetry_equiv_pos_as_xyz
  1  'x, y, z'
loop_
 _atom_site_type_symbol
 _atom_site_label
 _atom_site_symmetry_multiplicity
 _atom_site_fract_x
 _atom_site_fract_y
 _atom_site_fract_z
 _atom_site_occupancy
  Zr  Zr0  1  0.20371000  0.79629000  0.79629000  1
  Zr  Zr1  1  0.79629000  0.20371000  0.20371000  1
  Zr  Zr2  1  0.79629000  0.20371000  0.79629000  1
  Zr  Zr3  1  0.79629000  0.79629000  0.20371000  1
  Zr  Zr4  1  0.20371000  0.79629000  0.20371000  1
  Zr  Zr5  1  0.20371000  0.20371000  0.79629000  1
  Al  Al6  1  0.83654600  0.83654600  0.83654600  1
  Al  Al7  1  0.83654600  0.83654600  0.49036100  1
  Al  Al8  1  0.49036100  0.83654600  0.83654600  1
  Al  Al9  1  0.83654600  0.49036100  0.83654600  1
  Al  Al10  1  0.16345400  0.16345400  0.16345400  1
  Al  Al11  1  0.16345400  0.16345400  0.50963900  1
  Al  Al12  1  0.16345400  0.50963900  0.16345400  1
  Al  Al13  1  0.50963900  0.16345400  0.16345400  1
  Al  Al14  1  0.61948300  0.61948300  0.61948300  1
  Al  Al15  1  0.61948300  0.61948300  0.14155200  1
  Al  Al16  1  0.14155200  0.61948300  0.61948300  1
  Al  Al17  1  0.61948300  0.14155200  0.61948300  1
  Al  Al18  1  0.38051700  0.38051700  0.38051700  1
  Al  Al19  1  0.38051700  0.38051700  0.85844800  1
  Al  Al20  1  0.38051700  0.85844800  0.38051700  1
  Al  Al21  1  0.85844800  0.38051700  0.38051700  1
  Ru  Ru22  1  0.00000000  0.50000000  0.50000000  1
  Ru  Ru23  1  0.50000000  0.00000000  0.00000000  1
  Ru  Ru24  1  0.50000000  0.00000000  0.50000000  1
  Ru  Ru25  1  0.50000000  0.50000000  0.00000000  1
  Ru  Ru26  1  0.00000000  0.50000000  0.00000000  1
  Ru  Ru27  1  0.00000000  0.00000000  0.50000000  1
  Ru  Ru28  1  0.50000000  0.50000000  0.50000000  1
