# generated using pymatgen
data_SmB4
_symmetry_space_group_name_H-M   'P 1'
_cell_length_a   7.18655700
_cell_length_b   7.18655700
_cell_length_c   4.08152100
_cell_angle_alpha   90.00000000
_cell_angle_beta   90.00000000
_cell_angle_gamma   90.00000000
_symmetry_Int_Tables_number   1
_chemical_formula_structural   SmB4
_chemical_formula_sum   'Sm4 B16'
_cell_volume   210.79668866
_cell_formula_units_Z   4
loop_
 _symmetry_equiv_pos_site_id
 _symmetry_equiv_pos_as_xyz
  1  'x, y, z'
loop_
 _atom_site_type_symbol
 _atom_site_label
 _atom_site_symmetry_multiplicity
 _atom_site_fract_x
 _atom_site_fract_y
 _atom_site_fract_z
 _atom_site_occupancy
  Sm  Sm0  1  0.18279700  0.68279700  0.00000000  1
  Sm  Sm1  1  0.68279700  0.81720300  0.00000000  1
  Sm  Sm2  1  0.31720300  0.18279700  0.00000000  1
  Sm  Sm3  1  0.81720300  0.31720300  0.00000000  1
  B  B4  1  0.32506100  0.46118400  0.50000000  1
  B  B5  1  0.67493900  0.53881600  0.50000000  1
  B  B6  1  0.53881600  0.32506100  0.50000000  1
  B  B7  1  0.46118400  0.67493900  0.50000000  1
  B  B8  1  0.00000000  0.00000000  0.20408900  1
  B  B9  1  0.50000000  0.50000000  0.79591100  1
  B  B10  1  0.00000000  0.00000000  0.79591100  1
  B  B11  1  0.50000000  0.50000000  0.20408900  1
  B  B12  1  0.58763900  0.08763900  0.50000000  1
  B  B13  1  0.08763900  0.41236100  0.50000000  1
  B  B14  1  0.91236100  0.58763900  0.50000000  1
  B  B15  1  0.41236100  0.91236100  0.50000000  1
  B  B16  1  0.03881600  0.17493900  0.50000000  1
  B  B17  1  0.17493900  0.96118400  0.50000000  1
  B  B18  1  0.82506100  0.03881600  0.50000000  1
  B  B19  1  0.96118400  0.82506100  0.50000000  1
