# generated using pymatgen
data_NaHgPO4
_symmetry_space_group_name_H-M   'P 1'
_cell_length_a   5.64559515
_cell_length_b   5.64559515
_cell_length_c   6.54723000
_cell_angle_alpha   90.00000000
_cell_angle_beta   90.00000000
_cell_angle_gamma   116.03454916
_symmetry_Int_Tables_number   1
_chemical_formula_structural   NaHgPO4
_chemical_formula_sum   'Na2 Hg2 P2 O8'
_cell_volume   187.50351938
_cell_formula_units_Z   2
loop_
 _symmetry_equiv_pos_site_id
 _symmetry_equiv_pos_as_xyz
  1  'x, y, z'
loop_
 _atom_site_type_symbol
 _atom_site_label
 _atom_site_symmetry_multiplicity
 _atom_site_fract_x
 _atom_site_fract_y
 _atom_site_fract_z
 _atom_site_occupancy
  Na  Na0  1  0.50000000  0.50000000  0.00000000  1
  Na  Na1  1  0.50000000  0.50000000  0.50000000  1
  Hg  Hg2  1  0.81187300  0.18812700  0.25000000  1
  Hg  Hg3  1  0.18812700  0.81187300  0.75000000  1
  P  P4  1  0.13923200  0.86076800  0.25000000  1
  P  P5  1  0.86076800  0.13923200  0.75000000  1
  O  O6  1  0.73989000  0.83472800  0.75000000  1
  O  O7  1  0.26011000  0.16527200  0.25000000  1
  O  O8  1  0.83472800  0.73989000  0.25000000  1
  O  O9  1  0.16527200  0.26011000  0.75000000  1
  O  O10  1  0.75454700  0.24545300  0.93454300  1
  O  O11  1  0.24545300  0.75454700  0.43454300  1
  O  O12  1  0.75454700  0.24545300  0.56545700  1
  O  O13  1  0.24545300  0.75454700  0.06545700  1
