# generated using pymatgen
data_Ce(BIr)2
_symmetry_space_group_name_H-M   'P 1'
_cell_length_a   7.10407154
_cell_length_b   6.12979554
_cell_length_c   5.58036170
_cell_angle_alpha   74.53091079
_cell_angle_beta   56.26337159
_cell_angle_gamma   49.20571762
_symmetry_Int_Tables_number   1
_chemical_formula_structural   Ce(BIr)2
_chemical_formula_sum   'Ce2 B4 Ir4'
_cell_volume   151.19489476
_cell_formula_units_Z   2
loop_
 _symmetry_equiv_pos_site_id
 _symmetry_equiv_pos_as_xyz
  1  'x, y, z'
loop_
 _atom_site_type_symbol
 _atom_site_label
 _atom_site_symmetry_multiplicity
 _atom_site_fract_x
 _atom_site_fract_y
 _atom_site_fract_z
 _atom_site_occupancy
  Ce  Ce0  1  0.75000000  0.75000000  0.75000000  1
  Ce  Ce1  1  0.50000000  0.50000000  0.50000000  1
  B  B2  1  0.06970500  0.43029500  0.06970500  1
  B  B3  1  0.81970500  0.18029500  0.81970500  1
  B  B4  1  0.43029500  0.06970500  0.43029500  1
  B  B5  1  0.18029500  0.81970500  0.18029500  1
  Ir  Ir6  1  0.37966800  0.37966800  0.12033200  1
  Ir  Ir7  1  0.12966800  0.12966800  0.87033200  1
  Ir  Ir8  1  0.87033200  0.87033200  0.12966800  1
  Ir  Ir9  1  0.12033200  0.12033200  0.37966800  1
