# generated using pymatgen
data_Cs2MoSe4
_symmetry_space_group_name_H-M   'P 1'
_cell_length_a   7.61066500
_cell_length_b   10.66594200
_cell_length_c   13.47716200
_cell_angle_alpha   90.00000000
_cell_angle_beta   90.00000000
_cell_angle_gamma   90.00000000
_symmetry_Int_Tables_number   1
_chemical_formula_structural   Cs2MoSe4
_chemical_formula_sum   'Cs8 Mo4 Se16'
_cell_volume   1094.00743224
_cell_formula_units_Z   4
loop_
 _symmetry_equiv_pos_site_id
 _symmetry_equiv_pos_as_xyz
  1  'x, y, z'
loop_
 _atom_site_type_symbol
 _atom_site_label
 _atom_site_symmetry_multiplicity
 _atom_site_fract_x
 _atom_site_fract_y
 _atom_site_fract_z
 _atom_site_occupancy
  Cs  Cs0  1  0.75000000  0.45368600  0.65787800  1
  Cs  Cs1  1  0.25000000  0.04631400  0.15787800  1
  Cs  Cs2  1  0.75000000  0.95368600  0.84212200  1
  Cs  Cs3  1  0.25000000  0.54631400  0.34212200  1
  Cs  Cs4  1  0.75000000  0.16671400  0.39001800  1
  Cs  Cs5  1  0.25000000  0.33328600  0.89001800  1
  Cs  Cs6  1  0.75000000  0.66671400  0.10998200  1
  Cs  Cs7  1  0.25000000  0.83328600  0.60998200  1
  Mo  Mo8  1  0.75000000  0.25746500  0.07523200  1
  Mo  Mo9  1  0.25000000  0.24253500  0.57523200  1
  Mo  Mo10  1  0.75000000  0.75746500  0.42476800  1
  Mo  Mo11  1  0.25000000  0.74253500  0.92476800  1
  Se  Se12  1  0.75000000  0.28589300  0.90354200  1
  Se  Se13  1  0.25000000  0.21410700  0.40354200  1
  Se  Se14  1  0.75000000  0.78589300  0.59645800  1
  Se  Se15  1  0.25000000  0.71410700  0.09645800  1
  Se  Se16  1  0.75000000  0.54229300  0.38652100  1
  Se  Se17  1  0.25000000  0.95770700  0.88652100  1
  Se  Se18  1  0.75000000  0.04229300  0.11347900  1
  Se  Se19  1  0.25000000  0.45770700  0.61347900  1
  Se  Se20  1  0.00159500  0.14813800  0.64282200  1
  Se  Se21  1  0.99840500  0.35186200  0.14282200  1
  Se  Se22  1  0.49840500  0.64813800  0.85717800  1
  Se  Se23  1  0.50159500  0.85186200  0.35717800  1
  Se  Se24  1  0.99840500  0.85186200  0.35717800  1
  Se  Se25  1  0.00159500  0.64813800  0.85717800  1
  Se  Se26  1  0.50159500  0.35186200  0.14282200  1
  Se  Se27  1  0.49840500  0.14813800  0.64282200  1
