# generated using pymatgen
data_BaNaP3H3(NO2)3
_symmetry_space_group_name_H-M   'P 1'
_cell_length_a   7.57886334
_cell_length_b   7.57886334
_cell_length_c   7.99592748
_cell_angle_alpha   71.87273891
_cell_angle_beta   71.87273891
_cell_angle_gamma   87.71847026
_symmetry_Int_Tables_number   1
_chemical_formula_structural   BaNaP3H3(NO2)3
_chemical_formula_sum   'Ba2 Na2 P6 H6 N6 O12'
_cell_volume   413.99407406
_cell_formula_units_Z   2
loop_
 _symmetry_equiv_pos_site_id
 _symmetry_equiv_pos_as_xyz
  1  'x, y, z'
loop_
 _atom_site_type_symbol
 _atom_site_label
 _atom_site_symmetry_multiplicity
 _atom_site_fract_x
 _atom_site_fract_y
 _atom_site_fract_z
 _atom_site_occupancy
  Ba  Ba0  1  0.56881700  0.56881700  0.69657900  1
  Ba  Ba1  1  0.43118300  0.43118300  0.30342100  1
  Na  Na2  1  0.81798300  0.18201700  0.50000000  1
  Na  Na3  1  0.18201700  0.81798300  0.50000000  1
  P  P4  1  0.65662300  0.93943300  0.23484800  1
  P  P5  1  0.06056700  0.34337700  0.76515200  1
  P  P6  1  0.34337700  0.06056700  0.76515200  1
  P  P7  1  0.93943300  0.65662300  0.23484800  1
  P  P8  1  0.79977100  0.79977100  0.91349900  1
  P  P9  1  0.20022900  0.20022900  0.08650100  1
  H  H10  1  0.93553100  0.93553100  0.29290600  1
  H  H11  1  0.06446900  0.06446900  0.70709400  1
  H  H12  1  0.74116700  0.10242900  0.91797900  1
  H  H13  1  0.89757100  0.25883300  0.08202100  1
  H  H14  1  0.25883300  0.89757100  0.08202100  1
  H  H15  1  0.10242900  0.74116700  0.91797900  1
  N  N16  1  0.71338600  0.96821100  0.00672400  1
  N  N17  1  0.03178900  0.28661400  0.99327600  1
  N  N18  1  0.28661400  0.03178900  0.99327600  1
  N  N19  1  0.96821100  0.71338600  0.00672400  1
  N  N20  1  0.83715400  0.83715400  0.30584300  1
  N  N21  1  0.16284600  0.16284600  0.69415700  1
  O  O22  1  0.64800500  0.12927100  0.26054400  1
  O  O23  1  0.87072900  0.35199500  0.73945600  1
  O  O24  1  0.35199500  0.87072900  0.73945600  1
  O  O25  1  0.12927100  0.64800500  0.26054400  1
  O  O26  1  0.49379200  0.79482600  0.33870900  1
  O  O27  1  0.20517400  0.50620800  0.66129000  1
  O  O28  1  0.50620800  0.20517400  0.66129000  1
  O  O29  1  0.79482600  0.49379200  0.33870900  1
  O  O30  1  0.64762100  0.64762100  0.97553900  1
  O  O31  1  0.35237900  0.35237900  0.02446100  1
  O  O32  1  0.88817200  0.88817200  0.70522600  1
  O  O33  1  0.11182800  0.11182800  0.29477400  1
