# generated using pymatgen
data_Ta2PdS6
_symmetry_space_group_name_H-M   'P 1'
_cell_length_a   6.99499319
_cell_length_b   6.99499319
_cell_length_c   10.65643851
_cell_angle_alpha   59.62342672
_cell_angle_beta   59.62342672
_cell_angle_gamma   27.21167226
_symmetry_Int_Tables_number   1
_chemical_formula_structural   Ta2PdS6
_chemical_formula_sum   'Ta2 Pd1 S6'
_cell_volume   203.62130225
_cell_formula_units_Z   1
loop_
 _symmetry_equiv_pos_site_id
 _symmetry_equiv_pos_as_xyz
  1  'x, y, z'
loop_
 _atom_site_type_symbol
 _atom_site_label
 _atom_site_symmetry_multiplicity
 _atom_site_fract_x
 _atom_site_fract_y
 _atom_site_fract_z
 _atom_site_occupancy
  Ta  Ta0  1  0.31937500  0.31937500  0.29453100  1
  Ta  Ta1  1  0.68062500  0.68062500  0.70546900  1
  Pd  Pd2  1  0.00000000  0.00000000  0.00000000  1
  S  S3  1  0.67196500  0.67196500  0.46509200  1
  S  S4  1  0.02378800  0.02378800  0.76393000  1
  S  S5  1  0.97621200  0.97621200  0.23607000  1
  S  S6  1  0.32803500  0.32803500  0.53490800  1
  S  S7  1  0.79676100  0.79676100  0.13521000  1
  S  S8  1  0.20323900  0.20323900  0.86479000  1
