# generated using pymatgen
data_Tl3Os3O10
_symmetry_space_group_name_H-M   'P 1'
_cell_length_a   16.53084301
_cell_length_b   16.53084301
_cell_length_c   16.53084301
_cell_angle_alpha   154.17736097
_cell_angle_beta   154.17736097
_cell_angle_gamma   36.84186511
_symmetry_Int_Tables_number   1
_chemical_formula_structural   Tl3Os3O10
_chemical_formula_sum   'Tl12 Os12 O40'
_cell_volume   855.92151859
_cell_formula_units_Z   4
loop_
 _symmetry_equiv_pos_site_id
 _symmetry_equiv_pos_as_xyz
  1  'x, y, z'
loop_
 _atom_site_type_symbol
 _atom_site_label
 _atom_site_symmetry_multiplicity
 _atom_site_fract_x
 _atom_site_fract_y
 _atom_site_fract_z
 _atom_site_occupancy
  Tl  Tl0  1  0.03975200  0.27840000  0.23864800  1
  Tl  Tl1  1  0.03975200  0.80110300  0.76135200  1
  Tl  Tl2  1  0.37500000  0.62500000  0.75000000  1
  Tl  Tl3  1  0.87500000  0.62500000  0.25000000  1
  Tl  Tl4  1  0.71024800  0.44889700  0.73864800  1
  Tl  Tl5  1  0.71024800  0.97160000  0.26135200  1
  Tl  Tl6  1  0.55110300  0.28975200  0.26135200  1
  Tl  Tl7  1  0.02840000  0.28975200  0.73864800  1
  Tl  Tl8  1  0.37500000  0.12500000  0.75000000  1
  Tl  Tl9  1  0.37500000  0.62500000  0.25000000  1
  Tl  Tl10  1  0.19889700  0.96024800  0.23864800  1
  Tl  Tl11  1  0.72160000  0.96024800  0.76135200  1
  Os  Os12  1  0.54175600  0.79126100  0.24950400  1
  Os  Os13  1  0.54175600  0.29225200  0.75049600  1
  Os  Os14  1  0.37500000  0.12500000  0.25000000  1
  Os  Os15  1  0.87500000  0.12500000  0.75000000  1
  Os  Os16  1  0.20824400  0.45873900  0.25049600  1
  Os  Os17  1  0.20824400  0.95774800  0.74950400  1
  Os  Os18  1  0.04225200  0.79175600  0.25049600  1
  Os  Os19  1  0.54126100  0.79175600  0.74950400  1
  Os  Os20  1  0.87500000  0.12500000  0.25000000  1
  Os  Os21  1  0.87500000  0.62500000  0.75000000  1
  Os  Os22  1  0.20873900  0.45824400  0.75049600  1
  Os  Os23  1  0.70774800  0.45824400  0.24950400  1
  O  O24  1  0.56681000  0.56681000  0.00000000  1
  O  O25  1  0.77620000  0.27846900  0.88768300  1
  O  O26  1  0.39078600  0.27846900  0.50226900  1
  O  O27  1  0.39078600  0.88851700  0.11231700  1
  O  O28  1  0.77620000  0.88851700  0.49773100  1
  O  O29  1  0.08602700  0.58602700  0.50000000  1
  O  O30  1  0.10611200  0.10611200  0.00000000  1
  O  O31  1  0.64388800  0.14388800  0.50000000  1
  O  O32  1  0.66397300  0.66397300  0.00000000  1
  O  O33  1  0.97380000  0.97153100  0.61231700  1
  O  O34  1  0.35921400  0.97153100  0.99773100  1
  O  O35  1  0.97380000  0.36148300  0.00226900  1
  O  O36  1  0.35921400  0.36148300  0.38768300  1
  O  O37  1  0.18319000  0.68319000  0.50000000  1
  O  O38  1  0.22767000  0.22767000  0.00000000  1
  O  O39  1  0.06662800  0.93337200  0.50000000  1
  O  O40  1  0.43337200  0.93337200  0.86674300  1
  O  O41  1  0.43337200  0.56662800  0.50000000  1
  O  O42  1  0.06662800  0.56662800  0.13325700  1
  O  O43  1  0.77233000  0.77233000  0.00000000  1
  O  O44  1  0.31681000  0.81681000  0.50000000  1
  O  O45  1  0.63851700  0.64078600  0.61231700  1
  O  O46  1  0.02846900  0.02620000  0.38768300  1
  O  O47  1  0.33602700  0.33602700  0.00000000  1
  O  O48  1  0.02846900  0.64078600  0.00226900  1
  O  O49  1  0.63851700  0.02620000  0.99773100  1
  O  O50  1  0.85611200  0.35611200  0.50000000  1
  O  O51  1  0.89388800  0.89388800  0.00000000  1
  O  O52  1  0.41397300  0.91397300  0.50000000  1
  O  O53  1  0.11148300  0.60921400  0.88768300  1
  O  O54  1  0.72153100  0.60921400  0.49773100  1
  O  O55  1  0.11148300  0.22380000  0.50226900  1
  O  O56  1  0.72153100  0.22380000  0.11231700  1
  O  O57  1  0.43319000  0.43319000  0.00000000  1
  O  O58  1  0.97767000  0.47767000  0.50000000  1
  O  O59  1  0.31662800  0.68337200  0.00000000  1
  O  O60  1  0.68337200  0.31662800  0.00000000  1
  O  O61  1  0.68337200  0.68337200  0.36674300  1
  O  O62  1  0.31662800  0.31662800  0.63325700  1
  O  O63  1  0.52233000  0.02233000  0.50000000  1
