# generated using pymatgen
data_In15SnO24
_symmetry_space_group_name_H-M   'P 1'
_cell_length_a   8.93281709
_cell_length_b   8.93281709
_cell_length_c   8.93281781
_cell_angle_alpha   109.39274136
_cell_angle_beta   109.39274136
_cell_angle_gamma   109.39274531
_symmetry_Int_Tables_number   1
_chemical_formula_structural   In15SnO24
_chemical_formula_sum   'In15 Sn1 O24'
_cell_volume   550.29929235
_cell_formula_units_Z   1
loop_
 _symmetry_equiv_pos_site_id
 _symmetry_equiv_pos_as_xyz
  1  'x, y, z'
loop_
 _atom_site_type_symbol
 _atom_site_label
 _atom_site_symmetry_multiplicity
 _atom_site_fract_x
 _atom_site_fract_y
 _atom_site_fract_z
 _atom_site_occupancy
  In  In0  1  0.96515300  0.74959700  0.21637400  1
  In  In1  1  0.71498900  0.46647000  0.74931900  1
  In  In2  1  0.78362600  0.03484700  0.25040300  1
  In  In3  1  0.25040300  0.78362600  0.03484700  1
  In  In4  1  0.25068100  0.28501100  0.53353000  1
  In  In5  1  0.50000000  0.50000000  0.00000000  1
  In  In6  1  0.53353000  0.25068100  0.28501100  1
  In  In7  1  0.00000000  0.50000000  0.50000000  1
  In  In8  1  0.46647000  0.74931900  0.71498900  1
  In  In9  1  0.50000000  0.00000000  0.50000000  1
  In  In10  1  0.74931900  0.71498900  0.46647000  1
  In  In11  1  0.74959700  0.21637400  0.96515300  1
  In  In12  1  0.28501100  0.53353000  0.25068100  1
  In  In13  1  0.21637400  0.96515300  0.74959700  1
  In  In14  1  0.03484700  0.25040300  0.78362600  1
  Sn  Sn15  1  0.00000000  0.00000000  0.00000000  1
  O  O16  1  0.04584800  0.03950300  0.26312400  1
  O  O17  1  0.45548000  0.22754800  0.49312100  1
  O  O18  1  0.72983700  0.77430900  0.23625800  1
  O  O19  1  0.03950300  0.26312400  0.04584800  1
  O  O20  1  0.53449000  0.99292800  0.26208000  1
  O  O21  1  0.22754800  0.49312100  0.45548000  1
  O  O22  1  0.76374200  0.27016300  0.22569100  1
  O  O23  1  0.73792000  0.46551000  0.00707200  1
  O  O24  1  0.50687900  0.54452000  0.77245200  1
  O  O25  1  0.26312400  0.04584800  0.03950300  1
  O  O26  1  0.22569100  0.76374200  0.27016300  1
  O  O27  1  0.99292800  0.26208000  0.53449000  1
  O  O28  1  0.00707200  0.73792000  0.46551000  1
  O  O29  1  0.49312100  0.45548000  0.22754800  1
  O  O30  1  0.77430900  0.23625800  0.72983700  1
  O  O31  1  0.73687600  0.95415200  0.96049700  1
  O  O32  1  0.23625800  0.72983700  0.77430900  1
  O  O33  1  0.26208000  0.53449000  0.99292800  1
  O  O34  1  0.46551000  0.00707200  0.73792000  1
  O  O35  1  0.77245200  0.50687900  0.54452000  1
  O  O36  1  0.27016300  0.22569100  0.76374200  1
  O  O37  1  0.96049700  0.73687600  0.95415200  1
  O  O38  1  0.54452000  0.77245200  0.50687900  1
  O  O39  1  0.95415200  0.96049700  0.73687600  1
