# generated using pymatgen
data_PaI3
_symmetry_space_group_name_H-M   'P 1'
_cell_length_a   11.43451931
_cell_length_b   11.43451931
_cell_length_c   3.99691200
_cell_angle_alpha   90.00000000
_cell_angle_beta   90.00000000
_cell_angle_gamma   119.99999599
_symmetry_Int_Tables_number   1
_chemical_formula_structural   PaI3
_chemical_formula_sum   'Pa2 I6'
_cell_volume   452.57552096
_cell_formula_units_Z   2
loop_
 _symmetry_equiv_pos_site_id
 _symmetry_equiv_pos_as_xyz
  1  'x, y, z'
loop_
 _atom_site_type_symbol
 _atom_site_label
 _atom_site_symmetry_multiplicity
 _atom_site_fract_x
 _atom_site_fract_y
 _atom_site_fract_z
 _atom_site_occupancy
  Pa  Pa0  1  0.66666700  0.33333300  0.25000000  1
  Pa  Pa1  1  0.33333300  0.66666700  0.75000000  1
  I  I2  1  0.78863700  0.21136300  0.75000000  1
  I  I3  1  0.42272700  0.21136300  0.75000000  1
  I  I4  1  0.78863700  0.57727300  0.75000000  1
  I  I5  1  0.21136300  0.78863700  0.25000000  1
  I  I6  1  0.57727300  0.78863700  0.25000000  1
  I  I7  1  0.21136300  0.42272700  0.25000000  1
