# generated using pymatgen
data_Li(TiSe2)3
_symmetry_space_group_name_H-M   'P 1'
_cell_length_a   3.57712378
_cell_length_b   3.57712378
_cell_length_c   22.61088500
_cell_angle_alpha   90.00000000
_cell_angle_beta   90.00000000
_cell_angle_gamma   119.99999589
_symmetry_Int_Tables_number   1
_chemical_formula_structural   Li(TiSe2)3
_chemical_formula_sum   'Li1 Ti3 Se6'
_cell_volume   250.56254241
_cell_formula_units_Z   1
loop_
 _symmetry_equiv_pos_site_id
 _symmetry_equiv_pos_as_xyz
  1  'x, y, z'
loop_
 _atom_site_type_symbol
 _atom_site_label
 _atom_site_symmetry_multiplicity
 _atom_site_fract_x
 _atom_site_fract_y
 _atom_site_fract_z
 _atom_site_occupancy
  Li  Li0  1  0.00000000  0.00000000  0.50000000  1
  Ti  Ti1  1  0.00000000  0.00000000  0.00000000  1
  Ti  Ti2  1  0.00000000  0.00000000  0.35305900  1
  Ti  Ti3  1  0.00000000  0.00000000  0.64694100  1
  Se  Se4  1  0.33333300  0.66666700  0.42395800  1
  Se  Se5  1  0.66666700  0.33333300  0.57604200  1
  Se  Se6  1  0.33333300  0.66666700  0.71346100  1
  Se  Se7  1  0.66666700  0.33333300  0.28653900  1
  Se  Se8  1  0.33333300  0.66666700  0.06791000  1
  Se  Se9  1  0.66666700  0.33333300  0.93209000  1
