# generated using pymatgen
data_AlCuSe2
_symmetry_space_group_name_H-M   'P 1'
_cell_length_a   6.85276300
_cell_length_b   6.85276300
_cell_length_c   6.85276300
_cell_angle_alpha   131.37564019
_cell_angle_beta   131.37564019
_cell_angle_gamma   71.21694106
_symmetry_Int_Tables_number   1
_chemical_formula_structural   AlCuSe2
_chemical_formula_sum   'Al2 Cu2 Se4'
_cell_volume   177.39212409
_cell_formula_units_Z   2
loop_
 _symmetry_equiv_pos_site_id
 _symmetry_equiv_pos_as_xyz
  1  'x, y, z'
loop_
 _atom_site_type_symbol
 _atom_site_label
 _atom_site_symmetry_multiplicity
 _atom_site_fract_x
 _atom_site_fract_y
 _atom_site_fract_z
 _atom_site_occupancy
  Al  Al0  1  0.50000000  0.50000000  0.00000000  1
  Al  Al1  1  0.25000000  0.75000000  0.50000000  1
  Cu  Cu2  1  0.00000000  0.00000000  0.00000000  1
  Cu  Cu3  1  0.75000000  0.25000000  0.50000000  1
  Se  Se4  1  0.12683700  0.12500000  0.50183700  1
  Se  Se5  1  0.87500000  0.37683700  0.00183700  1
  Se  Se6  1  0.37500000  0.87316300  0.99816300  1
  Se  Se7  1  0.62316300  0.62500000  0.49816300  1
