# generated using pymatgen
data_Ti5TlSe8
_symmetry_space_group_name_H-M   'P 1'
_cell_length_a   9.61871536
_cell_length_b   9.61871536
_cell_length_c   9.24489335
_cell_angle_alpha   75.72251417
_cell_angle_beta   75.72251417
_cell_angle_gamma   21.41339345
_symmetry_Int_Tables_number   1
_chemical_formula_structural   Ti5TlSe8
_chemical_formula_sum   'Ti5 Tl1 Se8'
_cell_volume   302.28197111
_cell_formula_units_Z   1
loop_
 _symmetry_equiv_pos_site_id
 _symmetry_equiv_pos_as_xyz
  1  'x, y, z'
loop_
 _atom_site_type_symbol
 _atom_site_label
 _atom_site_symmetry_multiplicity
 _atom_site_fract_x
 _atom_site_fract_y
 _atom_site_fract_z
 _atom_site_occupancy
  Ti  Ti0  1  0.50000000  0.50000000  0.50000000  1
  Ti  Ti1  1  0.15238700  0.15238700  0.50157900  1
  Ti  Ti2  1  0.20907100  0.20907100  0.15111000  1
  Ti  Ti3  1  0.79092900  0.79092900  0.84889000  1
  Ti  Ti4  1  0.84761300  0.84761300  0.49842100  1
  Tl  Tl5  1  0.00000000  0.00000000  0.00000000  1
  Se  Se6  1  0.92671200  0.92671200  0.67794500  1
  Se  Se7  1  0.33935600  0.33935600  0.99865900  1
  Se  Se8  1  0.66064400  0.66064400  0.00134100  1
  Se  Se9  1  0.74231600  0.74231600  0.33826500  1
  Se  Se10  1  0.25768400  0.25768400  0.66173500  1
  Se  Se11  1  0.41430200  0.41430200  0.31914900  1
  Se  Se12  1  0.58569800  0.58569800  0.68085100  1
  Se  Se13  1  0.07328800  0.07328800  0.32205500  1
