# generated using pymatgen
data_PmH
_symmetry_space_group_name_H-M   'P 1'
_cell_length_a   3.82259082
_cell_length_b   3.82259082
_cell_length_c   6.04921300
_cell_angle_alpha   90.00000000
_cell_angle_beta   90.00000000
_cell_angle_gamma   120.00001427
_symmetry_Int_Tables_number   1
_chemical_formula_structural   PmH
_chemical_formula_sum   'Pm2 H2'
_cell_volume   76.54997832
_cell_formula_units_Z   2
loop_
 _symmetry_equiv_pos_site_id
 _symmetry_equiv_pos_as_xyz
  1  'x, y, z'
loop_
 _atom_site_type_symbol
 _atom_site_label
 _atom_site_symmetry_multiplicity
 _atom_site_fract_x
 _atom_site_fract_y
 _atom_site_fract_z
 _atom_site_occupancy
  Pm  Pm0  1  0.66666700  0.33333300  0.88235200  1
  Pm  Pm1  1  0.33333300  0.66666700  0.38235200  1
  H  H2  1  0.66666700  0.33333300  0.49265900  1
  H  H3  1  0.33333300  0.66666700  0.99265900  1
