# generated using pymatgen
data_Cs2HgF4
_symmetry_space_group_name_H-M   'P 1'
_cell_length_a   8.06390220
_cell_length_b   8.06390220
_cell_length_c   8.06390220
_cell_angle_alpha   145.71816558
_cell_angle_beta   145.71816558
_cell_angle_gamma   49.26557188
_symmetry_Int_Tables_number   1
_chemical_formula_structural   Cs2HgF4
_chemical_formula_sum   'Cs2 Hg1 F4'
_cell_volume   165.60982082
_cell_formula_units_Z   1
loop_
 _symmetry_equiv_pos_site_id
 _symmetry_equiv_pos_as_xyz
  1  'x, y, z'
loop_
 _atom_site_type_symbol
 _atom_site_label
 _atom_site_symmetry_multiplicity
 _atom_site_fract_x
 _atom_site_fract_y
 _atom_site_fract_z
 _atom_site_occupancy
  Cs  Cs0  1  0.35707600  0.35707600  0.00000000  1
  Cs  Cs1  1  0.64292400  0.64292400  0.00000000  1
  Hg  Hg2  1  0.00000000  0.00000000  0.00000000  1
  F  F3  1  0.15512800  0.15512800  0.00000000  1
  F  F4  1  0.84487200  0.84487200  0.00000000  1
  F  F5  1  0.00000000  0.50000000  0.50000000  1
  F  F6  1  0.50000000  0.00000000  0.50000000  1
