# generated using pymatgen
data_Cs9AlO4
_symmetry_space_group_name_H-M   'P 1'
_cell_length_a   12.48836453
_cell_length_b   12.48836453
_cell_length_c   12.48836453
_cell_angle_alpha   104.91518193
_cell_angle_beta   104.91518193
_cell_angle_gamma   119.02703802
_symmetry_Int_Tables_number   1
_chemical_formula_structural   Cs9AlO4
_chemical_formula_sum   'Cs18 Al2 O8'
_cell_volume   1467.58420030
_cell_formula_units_Z   2
loop_
 _symmetry_equiv_pos_site_id
 _symmetry_equiv_pos_as_xyz
  1  'x, y, z'
loop_
 _atom_site_type_symbol
 _atom_site_label
 _atom_site_symmetry_multiplicity
 _atom_site_fract_x
 _atom_site_fract_y
 _atom_site_fract_z
 _atom_site_occupancy
  Cs  Cs0  1  0.58320100  0.08320100  0.66640200  1
  Cs  Cs1  1  0.41679900  0.91679900  0.33359800  1
  Cs  Cs2  1  0.08320100  0.41679900  0.50000000  1
  Cs  Cs3  1  0.91679900  0.58320100  0.50000000  1
  Cs  Cs4  1  0.00000000  0.00000000  0.00000000  1
  Cs  Cs5  1  0.50000000  0.50000000  0.00000000  1
  Cs  Cs6  1  0.51893900  0.25000000  0.26893900  1
  Cs  Cs7  1  0.98106100  0.25000000  0.73106100  1
  Cs  Cs8  1  0.25000000  0.98106100  0.73106100  1
  Cs  Cs9  1  0.25000000  0.51893900  0.26893900  1
  Cs  Cs10  1  0.48106100  0.75000000  0.73106100  1
  Cs  Cs11  1  0.01893900  0.75000000  0.26893900  1
  Cs  Cs12  1  0.75000000  0.01893900  0.26893900  1
  Cs  Cs13  1  0.75000000  0.48106100  0.73106100  1
  Cs  Cs14  1  0.16745800  0.66745800  0.83491500  1
  Cs  Cs15  1  0.83254200  0.33254200  0.16508500  1
  Cs  Cs16  1  0.66745800  0.83254200  0.50000000  1
  Cs  Cs17  1  0.33254200  0.16745800  0.50000000  1
  Al  Al18  1  0.25000000  0.75000000  0.50000000  1
  Al  Al19  1  0.75000000  0.25000000  0.50000000  1
  O  O20  1  0.23352400  0.73352400  0.63683200  1
  O  O21  1  0.09669100  0.59669100  0.36316800  1
  O  O22  1  0.40330900  0.76647600  0.50000000  1
  O  O23  1  0.26647600  0.90330900  0.50000000  1
  O  O24  1  0.76647600  0.26647600  0.36316800  1
  O  O25  1  0.90330900  0.40330900  0.63683200  1
  O  O26  1  0.73352400  0.09669100  0.50000000  1
  O  O27  1  0.59669100  0.23352400  0.50000000  1
