# generated using pymatgen
data_KNaSmTaO5
_symmetry_space_group_name_H-M   'P 1'
_cell_length_a   5.74907900
_cell_length_b   5.74907900
_cell_length_c   8.32085500
_cell_angle_alpha   90.00000000
_cell_angle_beta   90.00000000
_cell_angle_gamma   90.00000000
_symmetry_Int_Tables_number   1
_chemical_formula_structural   KNaSmTaO5
_chemical_formula_sum   'K2 Na2 Sm2 Ta2 O10'
_cell_volume   275.02014516
_cell_formula_units_Z   2
loop_
 _symmetry_equiv_pos_site_id
 _symmetry_equiv_pos_as_xyz
  1  'x, y, z'
loop_
 _atom_site_type_symbol
 _atom_site_label
 _atom_site_symmetry_multiplicity
 _atom_site_fract_x
 _atom_site_fract_y
 _atom_site_fract_z
 _atom_site_occupancy
  K  K0  1  0.00000000  0.00000000  0.00000000  1
  K  K1  1  0.50000000  0.50000000  0.00000000  1
  Na  Na2  1  0.00000000  0.50000000  0.24089900  1
  Na  Na3  1  0.50000000  0.00000000  0.75910100  1
  Sm  Sm4  1  0.00000000  0.00000000  0.50000000  1
  Sm  Sm5  1  0.50000000  0.50000000  0.50000000  1
  Ta  Ta6  1  0.50000000  0.00000000  0.25955700  1
  Ta  Ta7  1  0.00000000  0.50000000  0.74044300  1
  O  O8  1  0.50000000  0.00000000  0.03534000  1
  O  O9  1  0.26885100  0.76885100  0.33111600  1
  O  O10  1  0.73114900  0.76885100  0.33111600  1
  O  O11  1  0.26885100  0.23114900  0.33111600  1
  O  O12  1  0.73114900  0.23114900  0.33111600  1
  O  O13  1  0.76885100  0.26885100  0.66888400  1
  O  O14  1  0.23114900  0.26885100  0.66888400  1
  O  O15  1  0.76885100  0.73114900  0.66888400  1
  O  O16  1  0.23114900  0.73114900  0.66888400  1
  O  O17  1  0.00000000  0.50000000  0.96466000  1
