# generated using pymatgen
data_Rb2HgF4
_symmetry_space_group_name_H-M   'P 1'
_cell_length_a   7.71568402
_cell_length_b   7.71568402
_cell_length_c   7.71568402
_cell_angle_alpha   144.64372712
_cell_angle_beta   144.64372712
_cell_angle_gamma   50.86577108
_symmetry_Int_Tables_number   1
_chemical_formula_structural   Rb2HgF4
_chemical_formula_sum   'Rb2 Hg1 F4'
_cell_volume   153.00872798
_cell_formula_units_Z   1
loop_
 _symmetry_equiv_pos_site_id
 _symmetry_equiv_pos_as_xyz
  1  'x, y, z'
loop_
 _atom_site_type_symbol
 _atom_site_label
 _atom_site_symmetry_multiplicity
 _atom_site_fract_x
 _atom_site_fract_y
 _atom_site_fract_z
 _atom_site_occupancy
  Rb  Rb0  1  0.35871700  0.35871700  0.00000000  1
  Rb  Rb1  1  0.64128300  0.64128300  0.00000000  1
  Hg  Hg2  1  0.00000000  0.00000000  0.00000000  1
  F  F3  1  0.16323800  0.16323800  0.00000000  1
  F  F4  1  0.83676200  0.83676200  0.00000000  1
  F  F5  1  0.00000000  0.50000000  0.50000000  1
  F  F6  1  0.50000000  0.00000000  0.50000000  1
