# generated using pymatgen
data_AsPd2
_symmetry_space_group_name_H-M   'P 1'
_cell_length_a   8.75637269
_cell_length_b   8.75637269
_cell_length_c   6.70494500
_cell_angle_alpha   90.00000000
_cell_angle_beta   90.00000000
_cell_angle_gamma   158.06962245
_symmetry_Int_Tables_number   1
_chemical_formula_structural   AsPd2
_chemical_formula_sum   'As4 Pd8'
_cell_volume   192.00416421
_cell_formula_units_Z   4
loop_
 _symmetry_equiv_pos_site_id
 _symmetry_equiv_pos_as_xyz
  1  'x, y, z'
loop_
 _atom_site_type_symbol
 _atom_site_label
 _atom_site_symmetry_multiplicity
 _atom_site_fract_x
 _atom_site_fract_y
 _atom_site_fract_z
 _atom_site_occupancy
  As  As0  1  0.20388000  0.79612000  0.23182700  1
  As  As1  1  0.79612000  0.20388000  0.73182700  1
  As  As2  1  0.55839300  0.44160700  0.69726300  1
  As  As3  1  0.44160700  0.55839300  0.19726300  1
  Pd  Pd4  1  0.67459600  0.32540400  0.96082600  1
  Pd  Pd5  1  0.32540400  0.67459600  0.46082600  1
  Pd  Pd6  1  0.41500100  0.58499900  0.82690900  1
  Pd  Pd7  1  0.58499900  0.41500100  0.32690900  1
  Pd  Pd8  1  0.17094000  0.82906000  0.60771400  1
  Pd  Pd9  1  0.82906000  0.17094000  0.10771400  1
  Pd  Pd10  1  0.96167100  0.03832900  0.48976100  1
  Pd  Pd11  1  0.03832900  0.96167100  0.98976100  1
