# generated using pymatgen
data_Lu5Rh3
_symmetry_space_group_name_H-M   'P 1'
_cell_length_a   8.11011558
_cell_length_b   8.11011558
_cell_length_c   6.15823100
_cell_angle_alpha   90.00000000
_cell_angle_beta   90.00000000
_cell_angle_gamma   119.99999658
_symmetry_Int_Tables_number   1
_chemical_formula_structural   Lu5Rh3
_chemical_formula_sum   'Lu10 Rh6'
_cell_volume   350.78475390
_cell_formula_units_Z   2
loop_
 _symmetry_equiv_pos_site_id
 _symmetry_equiv_pos_as_xyz
  1  'x, y, z'
loop_
 _atom_site_type_symbol
 _atom_site_label
 _atom_site_symmetry_multiplicity
 _atom_site_fract_x
 _atom_site_fract_y
 _atom_site_fract_z
 _atom_site_occupancy
  Lu  Lu0  1  0.66666700  0.33333300  0.50000000  1
  Lu  Lu1  1  0.33333300  0.66666700  0.50000000  1
  Lu  Lu2  1  0.33333300  0.66666700  0.00000000  1
  Lu  Lu3  1  0.66666700  0.33333300  0.00000000  1
  Lu  Lu4  1  0.75008400  0.75008400  0.25000000  1
  Lu  Lu5  1  0.24991600  0.00000000  0.25000000  1
  Lu  Lu6  1  0.00000000  0.24991600  0.25000000  1
  Lu  Lu7  1  0.24991600  0.24991600  0.75000000  1
  Lu  Lu8  1  0.75008400  0.00000000  0.75000000  1
  Lu  Lu9  1  0.00000000  0.75008400  0.75000000  1
  Rh  Rh10  1  0.39984400  0.39984400  0.25000000  1
  Rh  Rh11  1  0.60015600  0.00000000  0.25000000  1
  Rh  Rh12  1  0.00000000  0.60015600  0.25000000  1
  Rh  Rh13  1  0.60015600  0.60015600  0.75000000  1
  Rh  Rh14  1  0.39984400  0.00000000  0.75000000  1
  Rh  Rh15  1  0.00000000  0.39984400  0.75000000  1
