# generated using pymatgen
data_Yb(ErS2)2
_symmetry_space_group_name_H-M   'P 1'
_cell_length_a   3.86007000
_cell_length_b   12.88656100
_cell_length_c   13.04410900
_cell_angle_alpha   90.00000000
_cell_angle_beta   90.00000000
_cell_angle_gamma   90.00000000
_symmetry_Int_Tables_number   1
_chemical_formula_structural   Yb(ErS2)2
_chemical_formula_sum   'Yb4 Er8 S16'
_cell_volume   648.85347295
_cell_formula_units_Z   4
loop_
 _symmetry_equiv_pos_site_id
 _symmetry_equiv_pos_as_xyz
  1  'x, y, z'
loop_
 _atom_site_type_symbol
 _atom_site_label
 _atom_site_symmetry_multiplicity
 _atom_site_fract_x
 _atom_site_fract_y
 _atom_site_fract_z
 _atom_site_occupancy
  Yb  Yb0  1  0.75000000  0.86952000  0.41722100  1
  Yb  Yb1  1  0.25000000  0.63048000  0.91722100  1
  Yb  Yb2  1  0.75000000  0.36952000  0.08277900  1
  Yb  Yb3  1  0.25000000  0.13048000  0.58277900  1
  Er  Er4  1  0.75000000  0.60757600  0.58371500  1
  Er  Er5  1  0.25000000  0.89242400  0.08371500  1
  Er  Er6  1  0.75000000  0.10757600  0.91628500  1
  Er  Er7  1  0.25000000  0.39242400  0.41628500  1
  Er  Er8  1  0.75000000  0.64674000  0.20218800  1
  Er  Er9  1  0.25000000  0.85326000  0.70218800  1
  Er  Er10  1  0.75000000  0.14674000  0.29781200  1
  Er  Er11  1  0.25000000  0.35326000  0.79781200  1
  S  S12  1  0.75000000  0.97065100  0.61673000  1
  S  S13  1  0.25000000  0.52934900  0.11673000  1
  S  S14  1  0.75000000  0.47065100  0.88327000  1
  S  S15  1  0.25000000  0.02934900  0.38327000  1
  S  S16  1  0.75000000  0.71692300  0.76401100  1
  S  S17  1  0.25000000  0.78307700  0.26401100  1
  S  S18  1  0.75000000  0.21692300  0.73598900  1
  S  S19  1  0.25000000  0.28307700  0.23598900  1
  S  S20  1  0.75000000  0.53414000  0.38224300  1
  S  S21  1  0.25000000  0.96586000  0.88224300  1
  S  S22  1  0.75000000  0.03414000  0.11775700  1
  S  S23  1  0.25000000  0.46586000  0.61775700  1
  S  S24  1  0.75000000  0.75655400  0.02468000  1
  S  S25  1  0.25000000  0.74344600  0.52468000  1
  S  S26  1  0.75000000  0.25655400  0.47532000  1
  S  S27  1  0.25000000  0.24344600  0.97532000  1
