# generated using pymatgen
data_Ba3MoN4
_symmetry_space_group_name_H-M   'P 1'
_cell_length_a   10.51962000
_cell_length_b   10.96535500
_cell_length_c   12.38986800
_cell_angle_alpha   90.00000000
_cell_angle_beta   90.00000000
_cell_angle_gamma   90.00000000
_symmetry_Int_Tables_number   1
_chemical_formula_structural   Ba3MoN4
_chemical_formula_sum   'Ba24 Mo8 N32'
_cell_volume   1429.18822023
_cell_formula_units_Z   8
loop_
 _symmetry_equiv_pos_site_id
 _symmetry_equiv_pos_as_xyz
  1  'x, y, z'
loop_
 _atom_site_type_symbol
 _atom_site_label
 _atom_site_symmetry_multiplicity
 _atom_site_fract_x
 _atom_site_fract_y
 _atom_site_fract_z
 _atom_site_occupancy
  Ba  Ba0  1  0.53249600  0.37440600  0.39346000  1
  Ba  Ba1  1  0.20632900  0.72135900  0.37883900  1
  Ba  Ba2  1  0.79367100  0.77864100  0.87883900  1
  Ba  Ba3  1  0.29367100  0.22135900  0.62116100  1
  Ba  Ba4  1  0.29367100  0.72135900  0.87883900  1
  Ba  Ba5  1  0.79367100  0.27864100  0.62116100  1
  Ba  Ba6  1  0.20632900  0.22135900  0.12116100  1
  Ba  Ba7  1  0.70632900  0.77864100  0.37883900  1
  Ba  Ba8  1  0.70632900  0.27864100  0.12116100  1
  Ba  Ba9  1  0.03249600  0.62559400  0.10654000  1
  Ba  Ba10  1  0.96750400  0.87440600  0.60654000  1
  Ba  Ba11  1  0.46750400  0.12559400  0.89346000  1
  Ba  Ba12  1  0.46750400  0.62559400  0.60654000  1
  Ba  Ba13  1  0.96750400  0.37440600  0.89346000  1
  Ba  Ba14  1  0.03249600  0.12559400  0.39346000  1
  Ba  Ba15  1  0.53249600  0.87440600  0.10654000  1
  Ba  Ba16  1  0.87931900  0.46973700  0.36083800  1
  Ba  Ba17  1  0.37931900  0.53026300  0.13916200  1
  Ba  Ba18  1  0.62068100  0.96973700  0.63916200  1
  Ba  Ba19  1  0.12068100  0.03026300  0.86083800  1
  Ba  Ba20  1  0.12068100  0.53026300  0.63916200  1
  Ba  Ba21  1  0.62068100  0.46973700  0.86083800  1
  Ba  Ba22  1  0.37931900  0.03026300  0.36083800  1
  Ba  Ba23  1  0.87931900  0.96973700  0.13916200  1
  Mo  Mo24  1  0.70139600  0.09493500  0.38535600  1
  Mo  Mo25  1  0.20139600  0.90506500  0.11464400  1
  Mo  Mo26  1  0.79860400  0.59493500  0.61464400  1
  Mo  Mo27  1  0.29860400  0.40506500  0.88535600  1
  Mo  Mo28  1  0.29860400  0.90506500  0.61464400  1
  Mo  Mo29  1  0.79860400  0.09493500  0.88535600  1
  Mo  Mo30  1  0.20139600  0.40506500  0.38535600  1
  Mo  Mo31  1  0.70139600  0.59493500  0.11464400  1
  N  N32  1  0.79266000  0.22552700  0.32148800  1
  N  N33  1  0.29266000  0.77447300  0.17851200  1
  N  N34  1  0.70734000  0.72552700  0.67851200  1
  N  N35  1  0.20734000  0.27447300  0.82148800  1
  N  N36  1  0.20734000  0.77447300  0.67851200  1
  N  N37  1  0.70734000  0.22552700  0.82148800  1
  N  N38  1  0.29266000  0.27447300  0.32148800  1
  N  N39  1  0.79266000  0.72552700  0.17851200  1
  N  N40  1  0.81343100  0.49317800  0.03694800  1
  N  N41  1  0.31343100  0.50682200  0.46305200  1
  N  N42  1  0.68656900  0.99317800  0.96305200  1
  N  N43  1  0.18656900  0.00682200  0.53694800  1
  N  N44  1  0.18656900  0.50682200  0.96305200  1
  N  N45  1  0.68656900  0.49317800  0.53694800  1
  N  N46  1  0.31343100  0.00682200  0.03694800  1
  N  N47  1  0.62309700  0.99412900  0.28271500  1
  N  N48  1  0.57565400  0.15214000  0.48203700  1
  N  N49  1  0.07565400  0.84786000  0.01796300  1
  N  N50  1  0.92434600  0.65214000  0.51796300  1
  N  N51  1  0.42434600  0.34786000  0.98203700  1
  N  N52  1  0.42434600  0.84786000  0.51796300  1
  N  N53  1  0.92434600  0.15214000  0.98203700  1
  N  N54  1  0.07565400  0.34786000  0.48203700  1
  N  N55  1  0.57565400  0.65214000  0.01796300  1
  N  N56  1  0.62309700  0.49412900  0.21728500  1
  N  N57  1  0.12309700  0.50587100  0.28271500  1
  N  N58  1  0.87690300  0.99412900  0.78271500  1
  N  N59  1  0.37690300  0.00587100  0.71728500  1
  N  N60  1  0.37690300  0.50587100  0.78271500  1
  N  N61  1  0.87690300  0.49412900  0.71728500  1
  N  N62  1  0.12309700  0.00587100  0.21728500  1
  N  N63  1  0.81343100  0.99317800  0.46305200  1
