# generated using pymatgen
data_NaLiTe
_symmetry_space_group_name_H-M   'P 1'
_cell_length_a   4.60744000
_cell_length_b   7.73508700
_cell_length_c   8.36928700
_cell_angle_alpha   90.00000000
_cell_angle_beta   90.00000000
_cell_angle_gamma   90.00000000
_symmetry_Int_Tables_number   1
_chemical_formula_structural   NaLiTe
_chemical_formula_sum   'Na4 Li4 Te4'
_cell_volume   298.27259463
_cell_formula_units_Z   4
loop_
 _symmetry_equiv_pos_site_id
 _symmetry_equiv_pos_as_xyz
  1  'x, y, z'
loop_
 _atom_site_type_symbol
 _atom_site_label
 _atom_site_symmetry_multiplicity
 _atom_site_fract_x
 _atom_site_fract_y
 _atom_site_fract_z
 _atom_site_occupancy
  Na  Na0  1  0.75000000  0.48464700  0.31526000  1
  Na  Na1  1  0.25000000  0.01535300  0.81526000  1
  Na  Na2  1  0.75000000  0.98464700  0.18474000  1
  Na  Na3  1  0.25000000  0.51535300  0.68474000  1
  Li  Li4  1  0.25000000  0.64229200  0.07108300  1
  Li  Li5  1  0.25000000  0.14229200  0.42891700  1
  Li  Li6  1  0.75000000  0.35770800  0.92891700  1
  Li  Li7  1  0.75000000  0.85770800  0.57108300  1
  Te  Te8  1  0.25000000  0.77509900  0.39174600  1
  Te  Te9  1  0.25000000  0.27509900  0.10825400  1
  Te  Te10  1  0.75000000  0.72490100  0.89174600  1
  Te  Te11  1  0.75000000  0.22490100  0.60825400  1
