# generated using pymatgen
data_VI3
_symmetry_space_group_name_H-M   'P 1'
_cell_length_a   10.66058661
_cell_length_b   10.66058661
_cell_length_c   3.68109600
_cell_angle_alpha   90.00000000
_cell_angle_beta   90.00000000
_cell_angle_gamma   120.00000379
_symmetry_Int_Tables_number   1
_chemical_formula_structural   VI3
_chemical_formula_sum   'V2 I6'
_cell_volume   362.30136019
_cell_formula_units_Z   2
loop_
 _symmetry_equiv_pos_site_id
 _symmetry_equiv_pos_as_xyz
  1  'x, y, z'
loop_
 _atom_site_type_symbol
 _atom_site_label
 _atom_site_symmetry_multiplicity
 _atom_site_fract_x
 _atom_site_fract_y
 _atom_site_fract_z
 _atom_site_occupancy
  V  V0  1  0.33333300  0.66666700  0.75000000  1
  V  V1  1  0.66666700  0.33333300  0.25000000  1
  I  I2  1  0.21943900  0.43887700  0.25000000  1
  I  I3  1  0.56112300  0.78056100  0.25000000  1
  I  I4  1  0.21943900  0.78056100  0.25000000  1
  I  I5  1  0.78056100  0.56112300  0.75000000  1
  I  I6  1  0.43887700  0.21943900  0.75000000  1
  I  I7  1  0.78056100  0.21943900  0.75000000  1
