# generated using pymatgen
data_Na3H7Os
_symmetry_space_group_name_H-M   'P 1'
_cell_length_a   9.59847600
_cell_length_b   9.59847600
_cell_length_c   5.31497100
_cell_angle_alpha   90.00000000
_cell_angle_beta   90.00000000
_cell_angle_gamma   90.00000000
_symmetry_Int_Tables_number   1
_chemical_formula_structural   Na3H7Os
_chemical_formula_sum   'Na12 H28 Os4'
_cell_volume   489.67221940
_cell_formula_units_Z   4
loop_
 _symmetry_equiv_pos_site_id
 _symmetry_equiv_pos_as_xyz
  1  'x, y, z'
loop_
 _atom_site_type_symbol
 _atom_site_label
 _atom_site_symmetry_multiplicity
 _atom_site_fract_x
 _atom_site_fract_y
 _atom_site_fract_z
 _atom_site_occupancy
  Na  Na0  1  0.70140900  0.96666500  0.50000000  1
  Na  Na1  1  0.29859100  0.03333500  0.50000000  1
  Na  Na2  1  0.20140900  0.53333500  0.00000000  1
  Na  Na3  1  0.79859100  0.46666500  0.00000000  1
  Na  Na4  1  0.96666500  0.70140900  0.50000000  1
  Na  Na5  1  0.03333500  0.29859100  0.50000000  1
  Na  Na6  1  0.53333500  0.20140900  0.00000000  1
  Na  Na7  1  0.46666500  0.79859100  0.00000000  1
  Na  Na8  1  0.38460300  0.38460300  0.50000000  1
  Na  Na9  1  0.61539700  0.61539700  0.50000000  1
  Na  Na10  1  0.88460300  0.11539700  0.00000000  1
  Na  Na11  1  0.11539700  0.88460300  0.00000000  1
  H  H12  1  0.60416100  0.39583900  0.69739100  1
  H  H13  1  0.39583900  0.60416100  0.69739100  1
  H  H14  1  0.10416100  0.10416100  0.19739100  1
  H  H15  1  0.89583900  0.89583900  0.19739100  1
  H  H16  1  0.39583900  0.60416100  0.30260900  1
  H  H17  1  0.60416100  0.39583900  0.30260900  1
  H  H18  1  0.89583900  0.89583900  0.80260900  1
  H  H19  1  0.10416100  0.10416100  0.80260900  1
  H  H20  1  0.74407600  0.25592400  0.20505900  1
  H  H21  1  0.25592400  0.74407600  0.20505900  1
  H  H22  1  0.24407600  0.24407600  0.70505900  1
  H  H23  1  0.75592400  0.75592400  0.70505900  1
  H  H24  1  0.25592400  0.74407600  0.79494100  1
  H  H25  1  0.74407600  0.25592400  0.79494100  1
  H  H26  1  0.75592400  0.75592400  0.29494100  1
  H  H27  1  0.24407600  0.24407600  0.29494100  1
  H  H28  1  0.56908000  0.17542700  0.50000000  1
  H  H29  1  0.43092000  0.82457300  0.50000000  1
  H  H30  1  0.06908000  0.32457300  0.00000000  1
  H  H31  1  0.93092000  0.67542700  0.00000000  1
  H  H32  1  0.17542700  0.56908000  0.50000000  1
  H  H33  1  0.82457300  0.43092000  0.50000000  1
  H  H34  1  0.32457300  0.06908000  0.00000000  1
  H  H35  1  0.67542700  0.93092000  0.00000000  1
  H  H36  1  0.82604200  0.17395800  0.50000000  1
  H  H37  1  0.17395800  0.82604200  0.50000000  1
  H  H38  1  0.32604200  0.32604200  0.00000000  1
  H  H39  1  0.67395800  0.67395800  0.00000000  1
  Os  Os40  1  0.70235300  0.29764700  0.50000000  1
  Os  Os41  1  0.29764700  0.70235300  0.50000000  1
  Os  Os42  1  0.20235300  0.20235300  0.00000000  1
  Os  Os43  1  0.79764700  0.79764700  0.00000000  1
