# generated using pymatgen
data_Pr2Ni12As7
_symmetry_space_group_name_H-M   'P 1'
_cell_length_a   9.40193290
_cell_length_b   9.40193290
_cell_length_c   3.89574300
_cell_angle_alpha   90.00000000
_cell_angle_beta   90.00000000
_cell_angle_gamma   120.00000636
_symmetry_Int_Tables_number   1
_chemical_formula_structural   Pr2Ni12As7
_chemical_formula_sum   'Pr2 Ni12 As7'
_cell_volume   298.23265714
_cell_formula_units_Z   1
loop_
 _symmetry_equiv_pos_site_id
 _symmetry_equiv_pos_as_xyz
  1  'x, y, z'
loop_
 _atom_site_type_symbol
 _atom_site_label
 _atom_site_symmetry_multiplicity
 _atom_site_fract_x
 _atom_site_fract_y
 _atom_site_fract_z
 _atom_site_occupancy
  Pr  Pr0  1  0.66666700  0.33333300  0.00000000  1
  Pr  Pr1  1  0.00000000  0.00000000  0.50000000  1
  Ni  Ni2  1  0.70719700  0.08834600  0.50000000  1
  Ni  Ni3  1  0.91165400  0.61885100  0.50000000  1
  Ni  Ni4  1  0.38114900  0.29280300  0.50000000  1
  Ni  Ni5  1  0.77393800  0.72162100  0.00000000  1
  Ni  Ni6  1  0.27837900  0.05231700  0.00000000  1
  Ni  Ni7  1  0.94768300  0.22606200  0.00000000  1
  Ni  Ni8  1  0.53997400  0.76333900  0.50000000  1
  Ni  Ni9  1  0.23666100  0.77663500  0.50000000  1
  Ni  Ni10  1  0.22336500  0.46002600  0.50000000  1
  Ni  Ni11  1  0.47917600  0.94475500  0.00000000  1
  Ni  Ni12  1  0.05524500  0.53442100  0.00000000  1
  Ni  Ni13  1  0.46557900  0.52082400  0.00000000  1
  As  As14  1  0.33333300  0.66666700  0.00000000  1
  As  As15  1  0.43473400  0.06843100  0.50000000  1
  As  As16  1  0.93156900  0.36630400  0.50000000  1
  As  As17  1  0.63369600  0.56526600  0.50000000  1
  As  As18  1  0.72956500  0.94997500  0.00000000  1
  As  As19  1  0.05002500  0.77959100  0.00000000  1
  As  As20  1  0.22040900  0.27043500  0.00000000  1
