# generated using pymatgen
data_BaMnS2
_symmetry_space_group_name_H-M   'P 1'
_cell_length_a   4.16006900
_cell_length_b   7.19485600
_cell_length_c   14.02440400
_cell_angle_alpha   90.00000000
_cell_angle_beta   90.00000000
_cell_angle_gamma   90.00000000
_symmetry_Int_Tables_number   1
_chemical_formula_structural   BaMnS2
_chemical_formula_sum   'Ba4 Mn4 S8'
_cell_volume   419.76580217
_cell_formula_units_Z   4
loop_
 _symmetry_equiv_pos_site_id
 _symmetry_equiv_pos_as_xyz
  1  'x, y, z'
loop_
 _atom_site_type_symbol
 _atom_site_label
 _atom_site_symmetry_multiplicity
 _atom_site_fract_x
 _atom_site_fract_y
 _atom_site_fract_z
 _atom_site_occupancy
  Ba  Ba0  1  0.25000000  0.20678400  0.87161300  1
  Ba  Ba1  1  0.75000000  0.79321600  0.12838700  1
  Ba  Ba2  1  0.25000000  0.70678400  0.62838700  1
  Ba  Ba3  1  0.75000000  0.29321600  0.37161300  1
  Mn  Mn4  1  0.75000000  0.73167800  0.86389900  1
  Mn  Mn5  1  0.75000000  0.23167800  0.63610100  1
  Mn  Mn6  1  0.25000000  0.26832200  0.13610100  1
  Mn  Mn7  1  0.25000000  0.76832200  0.36389900  1
  S  S8  1  0.25000000  0.03124500  0.25885000  1
  S  S9  1  0.75000000  0.96875500  0.74115000  1
  S  S10  1  0.25000000  0.53124500  0.24115000  1
  S  S11  1  0.75000000  0.46875500  0.75885000  1
  S  S12  1  0.25000000  0.26227700  0.54792700  1
  S  S13  1  0.75000000  0.23772300  0.04792700  1
  S  S14  1  0.25000000  0.76227700  0.95207300  1
  S  S15  1  0.75000000  0.73772300  0.45207300  1
