# generated using pymatgen
data_CeGa3
_symmetry_space_group_name_H-M   'P 1'
_cell_length_a   6.40458361
_cell_length_b   6.40458361
_cell_length_c   4.57114800
_cell_angle_alpha   90.00000000
_cell_angle_beta   90.00000000
_cell_angle_gamma   119.99999602
_symmetry_Int_Tables_number   1
_chemical_formula_structural   CeGa3
_chemical_formula_sum   'Ce2 Ga6'
_cell_volume   162.38194224
_cell_formula_units_Z   2
loop_
 _symmetry_equiv_pos_site_id
 _symmetry_equiv_pos_as_xyz
  1  'x, y, z'
loop_
 _atom_site_type_symbol
 _atom_site_label
 _atom_site_symmetry_multiplicity
 _atom_site_fract_x
 _atom_site_fract_y
 _atom_site_fract_z
 _atom_site_occupancy
  Ce  Ce0  1  0.33333300  0.66666700  0.75000000  1
  Ce  Ce1  1  0.66666700  0.33333300  0.25000000  1
  Ga  Ga2  1  0.14547200  0.29094400  0.25000000  1
  Ga  Ga3  1  0.70905600  0.85452800  0.25000000  1
  Ga  Ga4  1  0.14547200  0.85452800  0.25000000  1
  Ga  Ga5  1  0.85452800  0.70905600  0.75000000  1
  Ga  Ga6  1  0.29094400  0.14547200  0.75000000  1
  Ga  Ga7  1  0.85452800  0.14547200  0.75000000  1
