# generated using pymatgen
data_Ba2YC2(O2F)3
_symmetry_space_group_name_H-M   'P 1'
_cell_length_a   7.08692200
_cell_length_b   9.60169000
_cell_length_c   11.91070300
_cell_angle_alpha   90.00000000
_cell_angle_beta   90.00000000
_cell_angle_gamma   90.00000000
_symmetry_Int_Tables_number   1
_chemical_formula_structural   Ba2YC2(O2F)3
_chemical_formula_sum   'Ba8 Y4 C8 O24 F12'
_cell_volume   810.48079529
_cell_formula_units_Z   4
loop_
 _symmetry_equiv_pos_site_id
 _symmetry_equiv_pos_as_xyz
  1  'x, y, z'
loop_
 _atom_site_type_symbol
 _atom_site_label
 _atom_site_symmetry_multiplicity
 _atom_site_fract_x
 _atom_site_fract_y
 _atom_site_fract_z
 _atom_site_occupancy
  Ba  Ba0  1  0.26255000  0.87980100  0.07121700  1
  Ba  Ba1  1  0.26255000  0.12019900  0.42878300  1
  Ba  Ba2  1  0.23745000  0.37980100  0.92878300  1
  Ba  Ba3  1  0.23745000  0.62019900  0.57121700  1
  Ba  Ba4  1  0.73745000  0.12019900  0.92878300  1
  Ba  Ba5  1  0.73745000  0.87980100  0.57121700  1
  Ba  Ba6  1  0.76255000  0.62019900  0.07121700  1
  Ba  Ba7  1  0.76255000  0.37980100  0.42878300  1
  Y  Y8  1  0.22817800  0.50000000  0.25000000  1
  Y  Y9  1  0.27182200  0.00000000  0.75000000  1
  Y  Y10  1  0.77182200  0.50000000  0.75000000  1
  Y  Y11  1  0.72817800  0.00000000  0.25000000  1
  C  C12  1  0.52053200  0.30590700  0.17982400  1
  C  C13  1  0.52053200  0.69409300  0.32017600  1
  C  C14  1  0.97946800  0.80590700  0.82017600  1
  C  C15  1  0.97946800  0.19409300  0.67982400  1
  C  C16  1  0.47946800  0.69409300  0.82017600  1
  C  C17  1  0.47946800  0.30590700  0.67982400  1
  C  C18  1  0.02053200  0.19409300  0.17982400  1
  C  C19  1  0.02053200  0.80590700  0.32017600  1
  O  O20  1  0.62005700  0.20253800  0.14631600  1
  O  O21  1  0.62005700  0.79746200  0.35368400  1
  O  O22  1  0.87994300  0.70253800  0.85368400  1
  O  O23  1  0.87994300  0.29746200  0.64631600  1
  O  O24  1  0.37994300  0.79746200  0.85368400  1
  O  O25  1  0.37994300  0.20253800  0.64631600  1
  O  O26  1  0.12005700  0.29746200  0.14631600  1
  O  O27  1  0.12005700  0.70253800  0.35368400  1
  O  O28  1  0.47830300  0.40866200  0.11267300  1
  O  O29  1  0.47830300  0.59133800  0.38732700  1
  O  O30  1  0.02169700  0.90866200  0.88732700  1
  O  O31  1  0.02169700  0.09133800  0.61267300  1
  O  O32  1  0.52169700  0.59133800  0.88732700  1
  O  O33  1  0.52169700  0.40866200  0.61267300  1
  O  O34  1  0.97830300  0.09133800  0.11267300  1
  O  O35  1  0.97830300  0.90866200  0.38732700  1
  O  O36  1  0.95737700  0.81493400  0.21701400  1
  O  O37  1  0.95737700  0.18506600  0.28298600  1
  O  O38  1  0.54262300  0.31493400  0.78298600  1
  O  O39  1  0.54262300  0.68506600  0.71701400  1
  O  O40  1  0.04262300  0.18506600  0.78298600  1
  O  O41  1  0.04262300  0.81493400  0.71701400  1
  O  O42  1  0.45737700  0.68506600  0.21701400  1
  O  O43  1  0.45737700  0.31493400  0.28298600  1
  F  F44  1  0.90181100  0.50000000  0.25000000  1
  F  F45  1  0.59818900  0.00000000  0.75000000  1
  F  F46  1  0.09818900  0.50000000  0.75000000  1
  F  F47  1  0.40181100  0.00000000  0.25000000  1
  F  F48  1  0.65031000  0.90606100  0.07793300  1
  F  F49  1  0.65031000  0.09393900  0.42206700  1
  F  F50  1  0.84969000  0.40606100  0.92206700  1
  F  F51  1  0.84969000  0.59393900  0.57793300  1
  F  F52  1  0.34969000  0.09393900  0.92206700  1
  F  F53  1  0.34969000  0.90606100  0.57793300  1
  F  F54  1  0.15031000  0.59393900  0.07793300  1
  F  F55  1  0.15031000  0.40606100  0.42206700  1
