# generated using pymatgen
data_Ca3N2
_symmetry_space_group_name_H-M   'P 1'
_cell_length_a   9.93809357
_cell_length_b   9.93809357
_cell_length_c   9.93809357
_cell_angle_alpha   109.47122063
_cell_angle_beta   109.47122063
_cell_angle_gamma   109.47122063
_symmetry_Int_Tables_number   1
_chemical_formula_structural   Ca3N2
_chemical_formula_sum   'Ca24 N16'
_cell_volume   755.59200514
_cell_formula_units_Z   8
loop_
 _symmetry_equiv_pos_site_id
 _symmetry_equiv_pos_as_xyz
  1  'x, y, z'
loop_
 _atom_site_type_symbol
 _atom_site_label
 _atom_site_symmetry_multiplicity
 _atom_site_fract_x
 _atom_site_fract_y
 _atom_site_fract_z
 _atom_site_occupancy
  Ca  Ca0  1  0.27148300  0.00672700  0.04385300  1
  Ca  Ca1  1  0.73524400  0.22851700  0.27237000  1
  Ca  Ca2  1  0.03712500  0.49327300  0.76475600  1
  Ca  Ca3  1  0.46287500  0.22763000  0.45614700  1
  Ca  Ca4  1  0.45614700  0.46287500  0.22763000  1
  Ca  Ca5  1  0.00672700  0.04385300  0.27148300  1
  Ca  Ca6  1  0.27237000  0.73524400  0.22851700  1
  Ca  Ca7  1  0.49327300  0.76475600  0.03712500  1
  Ca  Ca8  1  0.76475600  0.03712500  0.49327300  1
  Ca  Ca9  1  0.22851700  0.27237000  0.73524400  1
  Ca  Ca10  1  0.04385300  0.27148300  0.00672700  1
  Ca  Ca11  1  0.22763000  0.45614700  0.46287500  1
  Ca  Ca12  1  0.50672700  0.23524400  0.96287500  1
  Ca  Ca13  1  0.72763000  0.26475600  0.77148300  1
  Ca  Ca14  1  0.99327300  0.95614700  0.72851700  1
  Ca  Ca15  1  0.54385300  0.53712500  0.77237000  1
  Ca  Ca16  1  0.53712500  0.77237000  0.54385300  1
  Ca  Ca17  1  0.96287500  0.50672700  0.23524400  1
  Ca  Ca18  1  0.26475600  0.77148300  0.72763000  1
  Ca  Ca19  1  0.72851700  0.99327300  0.95614700  1
  Ca  Ca20  1  0.23524400  0.96287500  0.50672700  1
  Ca  Ca21  1  0.77148300  0.72763000  0.26475600  1
  Ca  Ca22  1  0.95614700  0.72851700  0.99327300  1
  Ca  Ca23  1  0.77237000  0.54385300  0.53712500  1
  N  N24  1  0.71040200  0.46040200  0.25000000  1
  N  N25  1  0.75000000  0.78959800  0.03959800  1
  N  N26  1  0.03959800  0.75000000  0.78959800  1
  N  N27  1  0.25000000  0.71040200  0.46040200  1
  N  N28  1  0.46040200  0.25000000  0.71040200  1
  N  N29  1  0.78959800  0.03959800  0.75000000  1
  N  N30  1  0.28959800  0.53959800  0.75000000  1
  N  N31  1  0.25000000  0.21040200  0.96040200  1
  N  N32  1  0.96040200  0.25000000  0.21040200  1
  N  N33  1  0.75000000  0.28959800  0.53959800  1
  N  N34  1  0.53959800  0.75000000  0.28959800  1
  N  N35  1  0.21040200  0.96040200  0.25000000  1
  N  N36  1  0.50000000  0.00000000  0.00000000  1
  N  N37  1  0.00000000  0.00000000  0.50000000  1
  N  N38  1  0.00000000  0.50000000  0.00000000  1
  N  N39  1  0.50000000  0.50000000  0.50000000  1
