# generated using pymatgen
data_K2Rh2O5
_symmetry_space_group_name_H-M   'P 1'
_cell_length_a   3.89093500
_cell_length_b   3.89093500
_cell_length_c   8.72043000
_cell_angle_alpha   90.00000000
_cell_angle_beta   90.00000000
_cell_angle_gamma   90.00000000
_symmetry_Int_Tables_number   1
_chemical_formula_structural   K2Rh2O5
_chemical_formula_sum   'K2 Rh2 O5'
_cell_volume   132.02186145
_cell_formula_units_Z   1
loop_
 _symmetry_equiv_pos_site_id
 _symmetry_equiv_pos_as_xyz
  1  'x, y, z'
loop_
 _atom_site_type_symbol
 _atom_site_label
 _atom_site_symmetry_multiplicity
 _atom_site_fract_x
 _atom_site_fract_y
 _atom_site_fract_z
 _atom_site_occupancy
  K  K0  1  0.00000000  0.00000000  0.00000000  1
  K  K1  1  0.00000000  0.00000000  0.50000000  1
  Rh  Rh2  1  0.50000000  0.50000000  0.27040800  1
  Rh  Rh3  1  0.50000000  0.50000000  0.72959200  1
  O  O4  1  0.50000000  0.00000000  0.22844900  1
  O  O5  1  0.50000000  0.00000000  0.77155100  1
  O  O6  1  0.50000000  0.50000000  0.50000000  1
  O  O7  1  0.00000000  0.50000000  0.22844900  1
  O  O8  1  0.00000000  0.50000000  0.77155100  1
