# generated using pymatgen
data_BaCaGaF7
_symmetry_space_group_name_H-M   'P 1'
_cell_length_a   5.52406900
_cell_length_b   5.49427900
_cell_length_c   19.88975107
_cell_angle_alpha   76.35832008
_cell_angle_beta   90.00000000
_cell_angle_gamma   90.00000000
_symmetry_Int_Tables_number   1
_chemical_formula_structural   BaCaGaF7
_chemical_formula_sum   'Ba4 Ca4 Ga4 F28'
_cell_volume   586.63968411
_cell_formula_units_Z   4
loop_
 _symmetry_equiv_pos_site_id
 _symmetry_equiv_pos_as_xyz
  1  'x, y, z'
loop_
 _atom_site_type_symbol
 _atom_site_label
 _atom_site_symmetry_multiplicity
 _atom_site_fract_x
 _atom_site_fract_y
 _atom_site_fract_z
 _atom_site_occupancy
  Ba  Ba0  1  0.24330400  0.31725200  0.43151000  1
  Ba  Ba1  1  0.75669600  0.68274800  0.56849000  1
  Ba  Ba2  1  0.75669600  0.31725200  0.93151000  1
  Ba  Ba3  1  0.24330400  0.68274800  0.06849000  1
  Ca  Ca4  1  0.32455100  0.50000000  0.75000000  1
  Ca  Ca5  1  0.67544900  0.50000000  0.25000000  1
  Ca  Ca6  1  0.79107200  0.00000000  0.75000000  1
  Ca  Ca7  1  0.20892800  0.00000000  0.25000000  1
  Ga  Ga8  1  0.22522500  0.17809800  0.61934800  1
  Ga  Ga9  1  0.77477500  0.17809800  0.11934800  1
  Ga  Ga10  1  0.22522500  0.82190200  0.88065200  1
  Ga  Ga11  1  0.77477500  0.82190200  0.38065200  1
  F  F12  1  0.05506200  0.84412300  0.43636200  1
  F  F13  1  0.05506200  0.15587700  0.06363800  1
  F  F14  1  0.94493800  0.15587700  0.56363800  1
  F  F15  1  0.94493800  0.84412300  0.93636200  1
  F  F16  1  0.02395400  0.34708900  0.67683700  1
  F  F17  1  0.02395400  0.65291100  0.82316300  1
  F  F18  1  0.97604600  0.65291100  0.32316300  1
  F  F19  1  0.97604600  0.34708900  0.17683700  1
  F  F20  1  0.28397700  0.50046600  0.55755200  1
  F  F21  1  0.28397700  0.49953400  0.94244800  1
  F  F22  1  0.71602300  0.49953400  0.44244800  1
  F  F23  1  0.71602300  0.50046600  0.05755200  1
  F  F24  1  0.59109600  0.02814800  0.06137700  1
  F  F25  1  0.59109600  0.97185200  0.43862300  1
  F  F26  1  0.40890400  0.97185200  0.93862300  1
  F  F27  1  0.40890400  0.02814800  0.56137700  1
  F  F28  1  0.87029700  0.87520500  0.18405500  1
  F  F29  1  0.87029700  0.12479500  0.31594500  1
  F  F30  1  0.12970300  0.12479500  0.81594500  1
  F  F31  1  0.12970300  0.87520500  0.68405500  1
  F  F32  1  0.49061600  0.75365900  0.82471700  1
  F  F33  1  0.49061600  0.24634100  0.67528300  1
  F  F34  1  0.50938400  0.24634100  0.17528300  1
  F  F35  1  0.50938400  0.75365900  0.32471700  1
  F  F36  1  0.37082800  0.73258200  0.19169600  1
  F  F37  1  0.37082800  0.26741800  0.30830400  1
  F  F38  1  0.62917200  0.26741800  0.80830400  1
  F  F39  1  0.62917200  0.73258200  0.69169600  1
