# generated using pymatgen
data_K2ZnO2
_symmetry_space_group_name_H-M   'P 1'
_cell_length_a   6.67608039
_cell_length_b   6.67608039
_cell_length_c   6.67608039
_cell_angle_alpha   131.34620600
_cell_angle_beta   125.69696422
_cell_angle_gamma   75.87102282
_symmetry_Int_Tables_number   1
_chemical_formula_structural   K2ZnO2
_chemical_formula_sum   'K4 Zn2 O4'
_cell_volume   176.46881438
_cell_formula_units_Z   2
loop_
 _symmetry_equiv_pos_site_id
 _symmetry_equiv_pos_as_xyz
  1  'x, y, z'
loop_
 _atom_site_type_symbol
 _atom_site_label
 _atom_site_symmetry_multiplicity
 _atom_site_fract_x
 _atom_site_fract_y
 _atom_site_fract_z
 _atom_site_occupancy
  K  K0  1  0.21134900  0.34769800  0.86365100  1
  K  K1  1  0.78865100  0.65230200  0.13634900  1
  K  K2  1  0.48404700  0.84769800  0.63634900  1
  K  K3  1  0.51595300  0.15230200  0.36365100  1
  Zn  Zn4  1  0.00000000  0.75000000  0.75000000  1
  Zn  Zn5  1  0.00000000  0.25000000  0.25000000  1
  O  O6  1  0.71893800  0.40454800  0.31439000  1
  O  O7  1  0.28106200  0.59545200  0.68561000  1
  O  O8  1  0.90984200  0.09545200  0.81439000  1
  O  O9  1  0.09015800  0.90454800  0.18561000  1
