# generated using pymatgen
data_SrSiPd
_symmetry_space_group_name_H-M   'P 1'
_cell_length_a   6.56967100
_cell_length_b   6.56967100
_cell_length_c   6.56967100
_cell_angle_alpha   90.00000000
_cell_angle_beta   90.00000000
_cell_angle_gamma   90.00000000
_symmetry_Int_Tables_number   1
_chemical_formula_structural   SrSiPd
_chemical_formula_sum   'Sr4 Si4 Pd4'
_cell_volume   283.55079138
_cell_formula_units_Z   4
loop_
 _symmetry_equiv_pos_site_id
 _symmetry_equiv_pos_as_xyz
  1  'x, y, z'
loop_
 _atom_site_type_symbol
 _atom_site_label
 _atom_site_symmetry_multiplicity
 _atom_site_fract_x
 _atom_site_fract_y
 _atom_site_fract_z
 _atom_site_occupancy
  Sr  Sr0  1  0.62850400  0.37149600  0.87149600  1
  Sr  Sr1  1  0.37149600  0.87149600  0.62850400  1
  Sr  Sr2  1  0.12850400  0.12850400  0.12850400  1
  Sr  Sr3  1  0.87149600  0.62850400  0.37149600  1
  Si  Si4  1  0.16305600  0.33694400  0.66305600  1
  Si  Si5  1  0.66305600  0.16305600  0.33694400  1
  Si  Si6  1  0.33694400  0.66305600  0.16305600  1
  Si  Si7  1  0.83694400  0.83694400  0.83694400  1
  Pd  Pd8  1  0.59014600  0.90985400  0.09014600  1
  Pd  Pd9  1  0.09014600  0.59014600  0.90985400  1
  Pd  Pd10  1  0.40985400  0.40985400  0.40985400  1
  Pd  Pd11  1  0.90985400  0.09014600  0.59014600  1
