# generated using pymatgen
data_NaPrO2
_symmetry_space_group_name_H-M   'P 1'
_cell_length_a   6.57665864
_cell_length_b   6.57665864
_cell_length_c   6.57665864
_cell_angle_alpha   137.22301860
_cell_angle_beta   137.22301860
_cell_angle_gamma   62.09509034
_symmetry_Int_Tables_number   1
_chemical_formula_structural   NaPrO2
_chemical_formula_sum   'Na2 Pr2 O4'
_cell_volume   129.64980214
_cell_formula_units_Z   2
loop_
 _symmetry_equiv_pos_site_id
 _symmetry_equiv_pos_as_xyz
  1  'x, y, z'
loop_
 _atom_site_type_symbol
 _atom_site_label
 _atom_site_symmetry_multiplicity
 _atom_site_fract_x
 _atom_site_fract_y
 _atom_site_fract_z
 _atom_site_occupancy
  Na  Na0  1  0.00000000  0.00000000  0.00000000  1
  Na  Na1  1  0.75000000  0.25000000  0.50000000  1
  Pr  Pr2  1  0.25000000  0.75000000  0.50000000  1
  Pr  Pr3  1  0.50000000  0.50000000  0.00000000  1
  O  O4  1  0.28290400  0.28290400  0.00000000  1
  O  O5  1  0.03290400  0.53290400  0.50000000  1
  O  O6  1  0.71709600  0.71709600  0.00000000  1
  O  O7  1  0.46709600  0.96709600  0.50000000  1
