# generated using pymatgen
data_SrSn(BO3)2
_symmetry_space_group_name_H-M   'P 1'
_cell_length_a   6.39088523
_cell_length_b   6.39088523
_cell_length_c   6.39088551
_cell_angle_alpha   46.05196459
_cell_angle_beta   46.05196459
_cell_angle_gamma   46.05195928
_symmetry_Int_Tables_number   1
_chemical_formula_structural   SrSn(BO3)2
_chemical_formula_sum   'Sr1 Sn1 B2 O6'
_cell_volume   123.42826070
_cell_formula_units_Z   1
loop_
 _symmetry_equiv_pos_site_id
 _symmetry_equiv_pos_as_xyz
  1  'x, y, z'
loop_
 _atom_site_type_symbol
 _atom_site_label
 _atom_site_symmetry_multiplicity
 _atom_site_fract_x
 _atom_site_fract_y
 _atom_site_fract_z
 _atom_site_occupancy
  Sr  Sr0  1  0.00000000  0.00000000  0.00000000  1
  Sn  Sn1  1  0.50000000  0.50000000  0.50000000  1
  B  B2  1  0.76501900  0.76501900  0.76501900  1
  B  B3  1  0.23498100  0.23498100  0.23498100  1
  O  O4  1  0.50859300  0.71805300  0.05773400  1
  O  O5  1  0.71805300  0.05773400  0.50859300  1
  O  O6  1  0.94226600  0.49140700  0.28194700  1
  O  O7  1  0.49140700  0.28194700  0.94226600  1
  O  O8  1  0.28194700  0.94226600  0.49140700  1
  O  O9  1  0.05773400  0.50859300  0.71805300  1
