# generated using pymatgen
data_HoAsPd
_symmetry_space_group_name_H-M   'P 1'
_cell_length_a   4.12900400
_cell_length_b   7.04707100
_cell_length_c   7.95476900
_cell_angle_alpha   90.00000000
_cell_angle_beta   90.00000000
_cell_angle_gamma   90.00000000
_symmetry_Int_Tables_number   1
_chemical_formula_structural   HoAsPd
_chemical_formula_sum   'Ho4 As4 Pd4'
_cell_volume   231.46297099
_cell_formula_units_Z   4
loop_
 _symmetry_equiv_pos_site_id
 _symmetry_equiv_pos_as_xyz
  1  'x, y, z'
loop_
 _atom_site_type_symbol
 _atom_site_label
 _atom_site_symmetry_multiplicity
 _atom_site_fract_x
 _atom_site_fract_y
 _atom_site_fract_z
 _atom_site_occupancy
  Ho  Ho0  1  0.25000000  0.03112400  0.19105500  1
  Ho  Ho1  1  0.75000000  0.96887600  0.80894500  1
  Ho  Ho2  1  0.25000000  0.53112400  0.30894500  1
  Ho  Ho3  1  0.75000000  0.46887600  0.69105500  1
  As  As4  1  0.25000000  0.74847100  0.62096300  1
  As  As5  1  0.75000000  0.25152900  0.37903700  1
  As  As6  1  0.25000000  0.24847100  0.87903700  1
  As  As7  1  0.75000000  0.75152900  0.12096300  1
  Pd  Pd8  1  0.75000000  0.35706300  0.06226700  1
  Pd  Pd9  1  0.25000000  0.64293700  0.93773300  1
  Pd  Pd10  1  0.75000000  0.85706300  0.43773300  1
  Pd  Pd11  1  0.25000000  0.14293700  0.56226700  1
