# generated using pymatgen
data_Li8V3P8O29
_symmetry_space_group_name_H-M   'P 1'
_cell_length_a   9.90643592
_cell_length_b   9.90643592
_cell_length_c   13.85928206
_cell_angle_alpha   89.92683921
_cell_angle_beta   89.92683921
_cell_angle_gamma   59.98464070
_symmetry_Int_Tables_number   1
_chemical_formula_structural   Li8V3P8O29
_chemical_formula_sum   'Li16 V6 P16 O58'
_cell_volume   1177.71044335
_cell_formula_units_Z   2
loop_
 _symmetry_equiv_pos_site_id
 _symmetry_equiv_pos_as_xyz
  1  'x, y, z'
loop_
 _atom_site_type_symbol
 _atom_site_label
 _atom_site_symmetry_multiplicity
 _atom_site_fract_x
 _atom_site_fract_y
 _atom_site_fract_z
 _atom_site_occupancy
  Li  Li0  1  0.31585900  0.77540300  0.93649800  1
  Li  Li1  1  0.31718400  0.90806100  0.43960900  1
  Li  Li2  1  0.77540300  0.31585900  0.43649800  1
  Li  Li3  1  0.67008100  0.66251800  0.12018100  1
  Li  Li4  1  0.66251800  0.67008100  0.62018100  1
  Li  Li5  1  0.90806100  0.31718400  0.93960900  1
  Li  Li6  1  0.09156000  0.22479800  0.56060200  1
  Li  Li7  1  0.77360400  0.90755600  0.93682300  1
  Li  Li8  1  0.22479800  0.09156000  0.06060200  1
  Li  Li9  1  0.90755600  0.77360400  0.43682300  1
  Li  Li10  1  0.09171800  0.68447000  0.06346200  1
  Li  Li11  1  0.32948200  0.33562300  0.37984000  1
  Li  Li12  1  0.33562300  0.32948200  0.87984000  1
  Li  Li13  1  0.22710800  0.68089400  0.56302300  1
  Li  Li14  1  0.68447000  0.09171800  0.56346200  1
  Li  Li15  1  0.68089400  0.22710800  0.06302300  1
  V  V16  1  0.43122100  0.56972500  0.75038200  1
  V  V17  1  0.56972500  0.43122100  0.25038200  1
  V  V18  1  0.43144000  0.00009600  0.24987500  1
  V  V19  1  0.56931400  0.00089200  0.74975200  1
  V  V20  1  0.00009600  0.43144000  0.74987500  1
  V  V21  1  0.00089200  0.56931400  0.24975200  1
  P  P22  1  0.32557300  0.76607000  0.15649900  1
  P  P23  1  0.32409500  0.91076500  0.65733200  1
  P  P24  1  0.76607000  0.32557300  0.65649900  1
  P  P25  1  0.66549600  0.66978100  0.37762700  1
  P  P26  1  0.66978100  0.66549600  0.87762700  1
  P  P27  1  0.91076500  0.32409500  0.15733200  1
  P  P28  1  0.09100400  0.23337800  0.34281100  1
  P  P29  1  0.76576200  0.91134900  0.15638000  1
  P  P30  1  0.23337800  0.09100400  0.84281100  1
  P  P31  1  0.91134900  0.76576200  0.65638000  1
  P  P32  1  0.08937000  0.67604600  0.84390800  1
  P  P33  1  0.33574300  0.33075900  0.12238000  1
  P  P34  1  0.33075900  0.33574300  0.62238000  1
  P  P35  1  0.23528000  0.67545800  0.34311300  1
  P  P36  1  0.67604600  0.08937000  0.34390800  1
  P  P37  1  0.67545800  0.23528000  0.84311300  1
  O  O38  1  0.22243000  0.78070700  0.25019700  1
  O  O39  1  0.25417600  0.75080000  0.43245800  1
  O  O40  1  0.32720400  0.75419900  0.65717300  1
  O  O41  1  0.24858700  0.99693700  0.93182200  1
  O  O42  1  0.33070100  0.91991300  0.15613600  1
  O  O43  1  0.49198400  0.62896300  0.17132100  1
  O  O44  1  0.52029500  0.66636200  0.84187700  1
  O  O45  1  0.62896300  0.49198400  0.67132100  1
  O  O46  1  0.75080000  0.25417600  0.93245800  1
  O  O47  1  0.78070700  0.22243000  0.75019700  1
  O  O48  1  0.75419900  0.32720400  0.15717300  1
  O  O49  1  0.51521200  0.82072400  0.33124400  1
  O  O50  1  0.66636200  0.52029500  0.34187700  1
  O  O51  1  0.49064700  0.88053600  0.67544100  1
  O  O52  1  0.64888200  0.68646600  0.48545400  1
  O  O53  1  0.68646600  0.64888200  0.98545400  1
  O  O54  1  0.62456900  0.88518000  0.17189900  1
  O  O55  1  0.82072400  0.51521200  0.83124400  1
  O  O56  1  0.67218800  0.81292500  0.84202900  1
  O  O57  1  0.91991300  0.33070100  0.65613600  1
  O  O58  1  0.00274700  0.21741200  0.24961300  1
  O  O59  1  0.99693700  0.24858700  0.43182200  1
  O  O60  1  0.88053600  0.49064700  0.17544100  1
  O  O61  1  0.00539200  0.24906000  0.06800700  1
  O  O62  1  0.81292500  0.67218800  0.34202900  1
  O  O63  1  0.88518000  0.62456900  0.67189900  1
  O  O64  1  0.07975200  0.25006400  0.84341600  1
  O  O65  1  0.75348500  0.91736300  0.65585400  1
  O  O66  1  0.21741200  0.00274700  0.74961300  1
  O  O67  1  0.24906000  0.00539200  0.56800700  1
  O  O68  1  0.75276000  0.99530600  0.43300000  1
  O  O69  1  0.77861600  0.00081500  0.25006000  1
  O  O70  1  0.25006400  0.07975200  0.34341600  1
  O  O71  1  0.91736300  0.75348500  0.15585400  1
  O  O72  1  0.11970500  0.37063600  0.32705600  1
  O  O73  1  0.17936300  0.33651900  0.66835900  1
  O  O74  1  0.11483300  0.50908500  0.82812800  1
  O  O75  1  0.99530600  0.75276000  0.93300000  1
  O  O76  1  0.00477200  0.74905000  0.56719100  1
  O  O77  1  0.00081500  0.77861600  0.75006000  1
  O  O78  1  0.08120000  0.67331000  0.34284200  1
  O  O79  1  0.33651900  0.17936300  0.16835900  1
  O  O80  1  0.18715700  0.48024600  0.15780100  1
  O  O81  1  0.37063600  0.11970500  0.82705600  1
  O  O82  1  0.33687000  0.31411600  0.01452300  1
  O  O83  1  0.31411600  0.33687000  0.51452300  1
  O  O84  1  0.50908500  0.11483300  0.32812800  1
  O  O85  1  0.32796400  0.48559900  0.65871400  1
  O  O86  1  0.48024600  0.18715700  0.65780100  1
  O  O87  1  0.24733400  0.66910300  0.84515700  1
  O  O88  1  0.24623000  0.75198800  0.06747900  1
  O  O89  1  0.37126700  0.50823900  0.32601800  1
  O  O90  1  0.48559900  0.32796400  0.15871400  1
  O  O91  1  0.50823900  0.37126700  0.82601800  1
  O  O92  1  0.67331000  0.08120000  0.84284200  1
  O  O93  1  0.74905000  0.00477200  0.06719100  1
  O  O94  1  0.66910300  0.24733400  0.34515700  1
  O  O95  1  0.75198800  0.24623000  0.56747900  1
