# generated using pymatgen
data_PaSe3
_symmetry_space_group_name_H-M   'P 1'
_cell_length_a   6.12723821
_cell_length_b   6.12723821
_cell_length_c   5.26883000
_cell_angle_alpha   90.00000000
_cell_angle_beta   90.00000000
_cell_angle_gamma   120.00000222
_symmetry_Int_Tables_number   1
_chemical_formula_structural   PaSe3
_chemical_formula_sum   'Pa2 Se6'
_cell_volume   171.30669531
_cell_formula_units_Z   2
loop_
 _symmetry_equiv_pos_site_id
 _symmetry_equiv_pos_as_xyz
  1  'x, y, z'
loop_
 _atom_site_type_symbol
 _atom_site_label
 _atom_site_symmetry_multiplicity
 _atom_site_fract_x
 _atom_site_fract_y
 _atom_site_fract_z
 _atom_site_occupancy
  Pa  Pa0  1  0.66666700  0.33333300  0.25000000  1
  Pa  Pa1  1  0.33333300  0.66666700  0.75000000  1
  Se  Se2  1  0.82463300  0.17536700  0.75000000  1
  Se  Se3  1  0.35073500  0.17536700  0.75000000  1
  Se  Se4  1  0.82463300  0.64926500  0.75000000  1
  Se  Se5  1  0.17536700  0.82463300  0.25000000  1
  Se  Se6  1  0.64926500  0.82463300  0.25000000  1
  Se  Se7  1  0.17536700  0.35073500  0.25000000  1
