# generated using pymatgen
data_YReB4
_symmetry_space_group_name_H-M   'P 1'
_cell_length_a   3.61929300
_cell_length_b   5.98823200
_cell_length_c   11.58496700
_cell_angle_alpha   90.00000000
_cell_angle_beta   90.00000000
_cell_angle_gamma   90.00000000
_symmetry_Int_Tables_number   1
_chemical_formula_structural   YReB4
_chemical_formula_sum   'Y4 Re4 B16'
_cell_volume   251.08291475
_cell_formula_units_Z   4
loop_
 _symmetry_equiv_pos_site_id
 _symmetry_equiv_pos_as_xyz
  1  'x, y, z'
loop_
 _atom_site_type_symbol
 _atom_site_label
 _atom_site_symmetry_multiplicity
 _atom_site_fract_x
 _atom_site_fract_y
 _atom_site_fract_z
 _atom_site_occupancy
  Y  Y0  1  0.00000000  0.12648400  0.15020900  1
  Y  Y1  1  0.00000000  0.87351600  0.84979100  1
  Y  Y2  1  0.00000000  0.62648400  0.34979100  1
  Y  Y3  1  0.00000000  0.37351600  0.65020900  1
  Re  Re4  1  0.00000000  0.13351700  0.41250500  1
  Re  Re5  1  0.00000000  0.86648300  0.58749500  1
  Re  Re6  1  0.00000000  0.63351700  0.08749500  1
  Re  Re7  1  0.00000000  0.36648300  0.91250500  1
  B  B8  1  0.50000000  0.47683300  0.19215500  1
  B  B9  1  0.50000000  0.52316700  0.80784500  1
  B  B10  1  0.50000000  0.97683300  0.30784500  1
  B  B11  1  0.50000000  0.02316700  0.69215500  1
  B  B12  1  0.50000000  0.28725300  0.31519500  1
  B  B13  1  0.50000000  0.71274700  0.68480500  1
  B  B14  1  0.50000000  0.78725300  0.18480500  1
  B  B15  1  0.50000000  0.21274700  0.81519500  1
  B  B16  1  0.50000000  0.36349500  0.46858000  1
  B  B17  1  0.50000000  0.63650500  0.53142000  1
  B  B18  1  0.50000000  0.86349500  0.03142000  1
  B  B19  1  0.50000000  0.13650500  0.96858000  1
  B  B20  1  0.50000000  0.38623500  0.04724500  1
  B  B21  1  0.50000000  0.61376500  0.95275500  1
  B  B22  1  0.50000000  0.88623500  0.45275500  1
  B  B23  1  0.50000000  0.11376500  0.54724500  1
