# generated using pymatgen
data_Nd3(CuSn)4
_symmetry_space_group_name_H-M   'P 1'
_cell_length_a   8.63126640
_cell_length_b   8.63126640
_cell_length_c   8.63126640
_cell_angle_alpha   149.21180957
_cell_angle_beta   132.00718376
_cell_angle_gamma   58.11006462
_symmetry_Int_Tables_number   1
_chemical_formula_structural   Nd3(CuSn)4
_chemical_formula_sum   'Nd3 Cu4 Sn4'
_cell_volume   242.72653686
_cell_formula_units_Z   1
loop_
 _symmetry_equiv_pos_site_id
 _symmetry_equiv_pos_as_xyz
  1  'x, y, z'
loop_
 _atom_site_type_symbol
 _atom_site_label
 _atom_site_symmetry_multiplicity
 _atom_site_fract_x
 _atom_site_fract_y
 _atom_site_fract_z
 _atom_site_occupancy
  Nd  Nd0  1  0.50000000  0.00000000  0.50000000  1
  Nd  Nd1  1  0.13300900  0.13300900  0.00000000  1
  Nd  Nd2  1  0.86699100  0.86699100  0.00000000  1
  Cu  Cu3  1  0.85171600  0.66796000  0.18375600  1
  Cu  Cu4  1  0.48420400  0.66796000  0.81624400  1
  Cu  Cu5  1  0.51579600  0.33204000  0.18375600  1
  Cu  Cu6  1  0.14828400  0.33204000  0.81624400  1
  Sn  Sn7  1  0.79924800  0.50000000  0.29924800  1
  Sn  Sn8  1  0.20075200  0.50000000  0.70075200  1
  Sn  Sn9  1  0.71616700  0.21616700  0.50000000  1
  Sn  Sn10  1  0.28383300  0.78383300  0.50000000  1
