# generated using pymatgen
data_Ag2Br3
_symmetry_space_group_name_H-M   'P 1'
_cell_length_a   7.58935728
_cell_length_b   7.58935728
_cell_length_c   7.58935722
_cell_angle_alpha   55.14172762
_cell_angle_beta   55.14172762
_cell_angle_gamma   55.14171905
_symmetry_Int_Tables_number   1
_chemical_formula_structural   Ag2Br3
_chemical_formula_sum   'Ag4 Br6'
_cell_volume   274.18115813
_cell_formula_units_Z   2
loop_
 _symmetry_equiv_pos_site_id
 _symmetry_equiv_pos_as_xyz
  1  'x, y, z'
loop_
 _atom_site_type_symbol
 _atom_site_label
 _atom_site_symmetry_multiplicity
 _atom_site_fract_x
 _atom_site_fract_y
 _atom_site_fract_z
 _atom_site_occupancy
  Ag  Ag0  1  0.83966900  0.83966900  0.83966900  1
  Ag  Ag1  1  0.66033100  0.66033100  0.66033100  1
  Ag  Ag2  1  0.33966900  0.33966900  0.33966900  1
  Ag  Ag3  1  0.16033100  0.16033100  0.16033100  1
  Br  Br4  1  0.92781600  0.25000000  0.57218400  1
  Br  Br5  1  0.25000000  0.57218400  0.92781600  1
  Br  Br6  1  0.57218400  0.92781600  0.25000000  1
  Br  Br7  1  0.42781600  0.07218400  0.75000000  1
  Br  Br8  1  0.75000000  0.42781600  0.07218400  1
  Br  Br9  1  0.07218400  0.75000000  0.42781600  1
