# generated using pymatgen
data_Ca2SnS4
_symmetry_space_group_name_H-M   'P 1'
_cell_length_a   6.58633600
_cell_length_b   8.29476500
_cell_length_c   13.99080100
_cell_angle_alpha   90.00000000
_cell_angle_beta   90.00000000
_cell_angle_gamma   90.00000000
_symmetry_Int_Tables_number   1
_chemical_formula_structural   Ca2SnS4
_chemical_formula_sum   'Ca8 Sn4 S16'
_cell_volume   764.34696986
_cell_formula_units_Z   4
loop_
 _symmetry_equiv_pos_site_id
 _symmetry_equiv_pos_as_xyz
  1  'x, y, z'
loop_
 _atom_site_type_symbol
 _atom_site_label
 _atom_site_symmetry_multiplicity
 _atom_site_fract_x
 _atom_site_fract_y
 _atom_site_fract_z
 _atom_site_occupancy
  Ca  Ca0  1  0.00000000  0.50000000  0.00000000  1
  Ca  Ca1  1  0.50000000  0.00000000  0.50000000  1
  Ca  Ca2  1  0.00000000  0.00000000  0.00000000  1
  Ca  Ca3  1  0.50000000  0.50000000  0.50000000  1
  Ca  Ca4  1  0.48820800  0.75000000  0.22636000  1
  Ca  Ca5  1  0.01179200  0.75000000  0.72636000  1
  Ca  Ca6  1  0.51179200  0.25000000  0.77364000  1
  Ca  Ca7  1  0.98820800  0.25000000  0.27364000  1
  Sn  Sn8  1  0.91337100  0.75000000  0.40473400  1
  Sn  Sn9  1  0.58662900  0.75000000  0.90473400  1
  Sn  Sn10  1  0.08662900  0.25000000  0.59526600  1
  Sn  Sn11  1  0.41337100  0.25000000  0.09526600  1
  S  S12  1  0.75957800  0.75000000  0.56300900  1
  S  S13  1  0.74042200  0.75000000  0.06300900  1
  S  S14  1  0.24042200  0.25000000  0.43699100  1
  S  S15  1  0.25957800  0.25000000  0.93699100  1
  S  S16  1  0.27652500  0.75000000  0.40695700  1
  S  S17  1  0.22347500  0.75000000  0.90695700  1
  S  S18  1  0.72347500  0.25000000  0.59304300  1
  S  S19  1  0.77652500  0.25000000  0.09304300  1
  S  S20  1  0.74576200  0.52364700  0.32843100  1
  S  S21  1  0.75423800  0.97635300  0.82843100  1
  S  S22  1  0.25423800  0.02364700  0.67156900  1
  S  S23  1  0.24576200  0.47635300  0.17156900  1
  S  S24  1  0.25423800  0.47635300  0.67156900  1
  S  S25  1  0.24576200  0.02364700  0.17156900  1
  S  S26  1  0.74576200  0.97635300  0.32843100  1
  S  S27  1  0.75423800  0.52364700  0.82843100  1
