# generated using pymatgen
data_Ac2GePd
_symmetry_space_group_name_H-M   'P 1'
_cell_length_a   5.46425816
_cell_length_b   5.46425816
_cell_length_c   5.46425816
_cell_angle_alpha   60.00000000
_cell_angle_beta   60.00000000
_cell_angle_gamma   60.00000000
_symmetry_Int_Tables_number   1
_chemical_formula_structural   Ac2GePd
_chemical_formula_sum   'Ac2 Ge1 Pd1'
_cell_volume   115.36621146
_cell_formula_units_Z   1
loop_
 _symmetry_equiv_pos_site_id
 _symmetry_equiv_pos_as_xyz
  1  'x, y, z'
loop_
 _atom_site_type_symbol
 _atom_site_label
 _atom_site_symmetry_multiplicity
 _atom_site_fract_x
 _atom_site_fract_y
 _atom_site_fract_z
 _atom_site_occupancy
  Ac  Ac0  1  0.25000000  0.25000000  0.25000000  1
  Ac  Ac1  1  0.75000000  0.75000000  0.75000000  1
  Ge  Ge2  1  0.00000000  0.00000000  0.00000000  1
  Pd  Pd3  1  0.50000000  0.50000000  0.50000000  1
