# generated using pymatgen
data_KGd2CuSe4
_symmetry_space_group_name_H-M   'P 1'
_cell_length_a   7.40558125
_cell_length_b   7.40558125
_cell_length_c   14.50608200
_cell_angle_alpha   90.00000000
_cell_angle_beta   90.00000000
_cell_angle_gamma   147.32691550
_symmetry_Int_Tables_number   1
_chemical_formula_structural   KGd2CuSe4
_chemical_formula_sum   'K2 Gd4 Cu2 Se8'
_cell_volume   429.47458958
_cell_formula_units_Z   2
loop_
 _symmetry_equiv_pos_site_id
 _symmetry_equiv_pos_as_xyz
  1  'x, y, z'
loop_
 _atom_site_type_symbol
 _atom_site_label
 _atom_site_symmetry_multiplicity
 _atom_site_fract_x
 _atom_site_fract_y
 _atom_site_fract_z
 _atom_site_occupancy
  K  K0  1  0.11136700  0.88863300  0.25000000  1
  K  K1  1  0.88863300  0.11136700  0.75000000  1
  Gd  Gd2  1  0.36541700  0.63458300  0.06441100  1
  Gd  Gd3  1  0.36541700  0.63458300  0.43558900  1
  Gd  Gd4  1  0.63458300  0.36541700  0.56441100  1
  Gd  Gd5  1  0.63458300  0.36541700  0.93558900  1
  Cu  Cu6  1  0.83995700  0.16004300  0.25000000  1
  Cu  Cu7  1  0.16004300  0.83995700  0.75000000  1
  Se  Se8  1  0.00000000  0.00000000  0.00000000  1
  Se  Se9  1  0.73445600  0.26554400  0.11324300  1
  Se  Se10  1  0.43533300  0.56466700  0.25000000  1
  Se  Se11  1  0.73445600  0.26554400  0.38675700  1
  Se  Se12  1  0.00000000  0.00000000  0.50000000  1
  Se  Se13  1  0.26554400  0.73445600  0.61324300  1
  Se  Se14  1  0.56466700  0.43533300  0.75000000  1
  Se  Se15  1  0.26554400  0.73445600  0.88675700  1
