# generated using pymatgen
data_Ba2GdC2(O2F)3
_symmetry_space_group_name_H-M   'P 1'
_cell_length_a   7.10297700
_cell_length_b   9.65597400
_cell_length_c   11.95948200
_cell_angle_alpha   90.00000000
_cell_angle_beta   90.00000000
_cell_angle_gamma   90.00000000
_symmetry_Int_Tables_number   1
_chemical_formula_structural   Ba2GdC2(O2F)3
_chemical_formula_sum   'Ba8 Gd4 C8 O24 F12'
_cell_volume   820.25496073
_cell_formula_units_Z   4
loop_
 _symmetry_equiv_pos_site_id
 _symmetry_equiv_pos_as_xyz
  1  'x, y, z'
loop_
 _atom_site_type_symbol
 _atom_site_label
 _atom_site_symmetry_multiplicity
 _atom_site_fract_x
 _atom_site_fract_y
 _atom_site_fract_z
 _atom_site_occupancy
  Ba  Ba0  1  0.76172100  0.37997000  0.42869300  1
  Ba  Ba1  1  0.76172100  0.62003000  0.07130700  1
  Ba  Ba2  1  0.73827900  0.87997000  0.57130700  1
  Ba  Ba3  1  0.73827900  0.12003000  0.92869300  1
  Ba  Ba4  1  0.26172100  0.87997000  0.07130700  1
  Ba  Ba5  1  0.26172100  0.12003000  0.42869300  1
  Ba  Ba6  1  0.23827900  0.37997000  0.92869300  1
  Ba  Ba7  1  0.23827900  0.62003000  0.57130700  1
  Gd  Gd8  1  0.72744400  0.00000000  0.25000000  1
  Gd  Gd9  1  0.77255600  0.50000000  0.75000000  1
  Gd  Gd10  1  0.27255600  0.00000000  0.75000000  1
  Gd  Gd11  1  0.22744400  0.50000000  0.25000000  1
  C  C12  1  0.52064100  0.30585900  0.17865900  1
  C  C13  1  0.52064100  0.69414100  0.32134100  1
  C  C14  1  0.97935900  0.80585900  0.82134100  1
  C  C15  1  0.97935900  0.19414100  0.67865900  1
  C  C16  1  0.47935900  0.69414100  0.82134100  1
  C  C17  1  0.47935900  0.30585900  0.67865900  1
  C  C18  1  0.02064100  0.19414100  0.17865900  1
  C  C19  1  0.02064100  0.80585900  0.32134100  1
  O  O20  1  0.61854700  0.20310800  0.14384900  1
  O  O21  1  0.61854700  0.79689200  0.35615100  1
  O  O22  1  0.88145300  0.70310800  0.85615100  1
  O  O23  1  0.88145300  0.29689200  0.64384900  1
  O  O24  1  0.38145300  0.79689200  0.85615100  1
  O  O25  1  0.38145300  0.20310800  0.64384900  1
  O  O26  1  0.11854700  0.29689200  0.14384900  1
  O  O27  1  0.11854700  0.70310800  0.35615100  1
  O  O28  1  0.47851000  0.40911200  0.11274800  1
  O  O29  1  0.47851000  0.59088800  0.38725200  1
  O  O30  1  0.02149000  0.90911200  0.88725200  1
  O  O31  1  0.02149000  0.09088800  0.61274800  1
  O  O32  1  0.52149000  0.59088800  0.88725200  1
  O  O33  1  0.52149000  0.40911200  0.61274800  1
  O  O34  1  0.97851000  0.09088800  0.11274800  1
  O  O35  1  0.97851000  0.90911200  0.38725200  1
  O  O36  1  0.95924300  0.81329000  0.21815000  1
  O  O37  1  0.95924300  0.18671000  0.28185000  1
  O  O38  1  0.54075700  0.31329000  0.78185000  1
  O  O39  1  0.54075700  0.68671000  0.71815000  1
  O  O40  1  0.04075700  0.18671000  0.78185000  1
  O  O41  1  0.04075700  0.81329000  0.71815000  1
  O  O42  1  0.45924300  0.68671000  0.21815000  1
  O  O43  1  0.45924300  0.31329000  0.28185000  1
  F  F44  1  0.89722500  0.50000000  0.25000000  1
  F  F45  1  0.60277500  0.00000000  0.75000000  1
  F  F46  1  0.10277500  0.50000000  0.75000000  1
  F  F47  1  0.39722500  0.00000000  0.25000000  1
  F  F48  1  0.64918500  0.90476300  0.07572400  1
  F  F49  1  0.64918500  0.09523700  0.42427600  1
  F  F50  1  0.85081500  0.40476300  0.92427600  1
  F  F51  1  0.85081500  0.59523700  0.57572400  1
  F  F52  1  0.35081500  0.09523700  0.92427600  1
  F  F53  1  0.35081500  0.90476300  0.57572400  1
  F  F54  1  0.14918500  0.59523700  0.07572400  1
  F  F55  1  0.14918500  0.40476300  0.42427600  1
