# generated using pymatgen
data_CaAlF5
_symmetry_space_group_name_H-M   'P 1'
_cell_length_a   5.45050224
_cell_length_b   5.45050224
_cell_length_c   7.43976286
_cell_angle_alpha   69.98009714
_cell_angle_beta   69.98009714
_cell_angle_gamma   71.99384548
_symmetry_Int_Tables_number   1
_chemical_formula_structural   CaAlF5
_chemical_formula_sum   'Ca2 Al2 F10'
_cell_volume   190.44989674
_cell_formula_units_Z   2
loop_
 _symmetry_equiv_pos_site_id
 _symmetry_equiv_pos_as_xyz
  1  'x, y, z'
loop_
 _atom_site_type_symbol
 _atom_site_label
 _atom_site_symmetry_multiplicity
 _atom_site_fract_x
 _atom_site_fract_y
 _atom_site_fract_z
 _atom_site_occupancy
  Ca  Ca0  1  0.54150400  0.45849600  0.25000000  1
  Ca  Ca1  1  0.45849600  0.54150400  0.75000000  1
  Al  Al2  1  0.00000000  0.00000000  0.50000000  1
  Al  Al3  1  0.00000000  0.00000000  0.00000000  1
  F  F4  1  0.76076800  0.79497100  0.61356800  1
  F  F5  1  0.20502900  0.23923200  0.88643200  1
  F  F6  1  0.23923200  0.20502900  0.38643200  1
  F  F7  1  0.79497100  0.76076800  0.11356800  1
  F  F8  1  0.05802000  0.94198000  0.75000000  1
  F  F9  1  0.94198000  0.05802000  0.25000000  1
  F  F10  1  0.29468200  0.72749800  0.02606400  1
  F  F11  1  0.27250200  0.70531800  0.47393600  1
  F  F12  1  0.70531800  0.27250200  0.97393600  1
  F  F13  1  0.72749800  0.29468200  0.52606400  1
