# generated using pymatgen
data_BaSnF6
_symmetry_space_group_name_H-M   'P 1'
_cell_length_a   5.06071925
_cell_length_b   5.06071925
_cell_length_c   5.06071880
_cell_angle_alpha   97.46792110
_cell_angle_beta   97.46792110
_cell_angle_gamma   97.46792306
_symmetry_Int_Tables_number   1
_chemical_formula_structural   BaSnF6
_chemical_formula_sum   'Ba1 Sn1 F6'
_cell_volume   125.99022604
_cell_formula_units_Z   1
loop_
 _symmetry_equiv_pos_site_id
 _symmetry_equiv_pos_as_xyz
  1  'x, y, z'
loop_
 _atom_site_type_symbol
 _atom_site_label
 _atom_site_symmetry_multiplicity
 _atom_site_fract_x
 _atom_site_fract_y
 _atom_site_fract_z
 _atom_site_occupancy
  Ba  Ba0  1  0.00000000  0.00000000  0.00000000  1
  Sn  Sn1  1  0.50000000  0.50000000  0.50000000  1
  F  F2  1  0.81775800  0.42963600  0.74740000  1
  F  F3  1  0.74740000  0.81775800  0.42963600  1
  F  F4  1  0.57036400  0.25260000  0.18224200  1
  F  F5  1  0.25260000  0.18224200  0.57036400  1
  F  F6  1  0.18224200  0.57036400  0.25260000  1
  F  F7  1  0.42963600  0.74740000  0.81775800  1
