# generated using pymatgen
data_LiPrGe2
_symmetry_space_group_name_H-M   'P 1'
_cell_length_a   3.99812400
_cell_length_b   7.85642300
_cell_length_c   10.79963600
_cell_angle_alpha   90.00000000
_cell_angle_beta   90.00000000
_cell_angle_gamma   90.00000000
_symmetry_Int_Tables_number   1
_chemical_formula_structural   LiPrGe2
_chemical_formula_sum   'Li4 Pr4 Ge8'
_cell_volume   339.22686260
_cell_formula_units_Z   4
loop_
 _symmetry_equiv_pos_site_id
 _symmetry_equiv_pos_as_xyz
  1  'x, y, z'
loop_
 _atom_site_type_symbol
 _atom_site_label
 _atom_site_symmetry_multiplicity
 _atom_site_fract_x
 _atom_site_fract_y
 _atom_site_fract_z
 _atom_site_occupancy
  Li  Li0  1  0.75000000  0.50926800  0.11103000  1
  Li  Li1  1  0.75000000  0.00926800  0.38897000  1
  Li  Li2  1  0.25000000  0.99073200  0.61103000  1
  Li  Li3  1  0.25000000  0.49073200  0.88897000  1
  Pr  Pr4  1  0.25000000  0.13971500  0.13411400  1
  Pr  Pr5  1  0.25000000  0.63971500  0.36588600  1
  Pr  Pr6  1  0.75000000  0.36028500  0.63411400  1
  Pr  Pr7  1  0.75000000  0.86028500  0.86588600  1
  Ge  Ge8  1  0.25000000  0.71962000  0.06683400  1
  Ge  Ge9  1  0.75000000  0.84281800  0.18338500  1
  Ge  Ge10  1  0.75000000  0.34281800  0.31661500  1
  Ge  Ge11  1  0.25000000  0.21962000  0.43316600  1
  Ge  Ge12  1  0.75000000  0.78038000  0.56683400  1
  Ge  Ge13  1  0.25000000  0.65718200  0.68338500  1
  Ge  Ge14  1  0.25000000  0.15718200  0.81661500  1
  Ge  Ge15  1  0.75000000  0.28038000  0.93316600  1
