# generated using pymatgen
data_KSe
_symmetry_space_group_name_H-M   'P 1'
_cell_length_a   9.03495204
_cell_length_b   9.03495204
_cell_length_c   6.09835700
_cell_angle_alpha   90.00000000
_cell_angle_beta   90.00000000
_cell_angle_gamma   120.00000029
_symmetry_Int_Tables_number   1
_chemical_formula_structural   KSe
_chemical_formula_sum   'K6 Se6'
_cell_volume   431.11702933
_cell_formula_units_Z   6
loop_
 _symmetry_equiv_pos_site_id
 _symmetry_equiv_pos_as_xyz
  1  'x, y, z'
loop_
 _atom_site_type_symbol
 _atom_site_label
 _atom_site_symmetry_multiplicity
 _atom_site_fract_x
 _atom_site_fract_y
 _atom_site_fract_z
 _atom_site_occupancy
  K  K0  1  0.64994000  0.00000000  0.00000000  1
  K  K1  1  0.35006000  0.35006000  0.00000000  1
  K  K2  1  0.00000000  0.64994000  0.00000000  1
  K  K3  1  0.31636700  0.00000000  0.50000000  1
  K  K4  1  0.68363300  0.68363300  0.50000000  1
  K  K5  1  0.00000000  0.31636700  0.50000000  1
  Se  Se6  1  0.00000000  0.00000000  0.19971300  1
  Se  Se7  1  0.00000000  0.00000000  0.80028700  1
  Se  Se8  1  0.33333300  0.66666700  0.29924000  1
  Se  Se9  1  0.33333300  0.66666700  0.70076000  1
  Se  Se10  1  0.66666700  0.33333300  0.70076000  1
  Se  Se11  1  0.66666700  0.33333300  0.29924000  1
