# generated using pymatgen
data_PrTlTe2
_symmetry_space_group_name_H-M   'P 1'
_cell_length_a   8.64331459
_cell_length_b   8.64331459
_cell_length_c   8.64331449
_cell_angle_alpha   30.90570500
_cell_angle_beta   30.90570500
_cell_angle_gamma   30.90570712
_symmetry_Int_Tables_number   1
_chemical_formula_structural   PrTlTe2
_chemical_formula_sum   'Pr1 Tl1 Te2'
_cell_volume   151.09646143
_cell_formula_units_Z   1
loop_
 _symmetry_equiv_pos_site_id
 _symmetry_equiv_pos_as_xyz
  1  'x, y, z'
loop_
 _atom_site_type_symbol
 _atom_site_label
 _atom_site_symmetry_multiplicity
 _atom_site_fract_x
 _atom_site_fract_y
 _atom_site_fract_z
 _atom_site_occupancy
  Pr  Pr0  1  0.00000000  0.00000000  0.00000000  1
  Tl  Tl1  1  0.50000000  0.50000000  0.50000000  1
  Te  Te2  1  0.74004600  0.74004600  0.74004600  1
  Te  Te3  1  0.25995400  0.25995400  0.25995400  1
