# generated using pymatgen
data_TlTe3Pt2
_symmetry_space_group_name_H-M   'P 1'
_cell_length_a   8.06862729
_cell_length_b   8.06862729
_cell_length_c   6.06065300
_cell_angle_alpha   90.00000000
_cell_angle_beta   90.00000000
_cell_angle_gamma   119.99999417
_symmetry_Int_Tables_number   1
_chemical_formula_structural   TlTe3Pt2
_chemical_formula_sum   'Tl2 Te6 Pt4'
_cell_volume   341.70346758
_cell_formula_units_Z   2
loop_
 _symmetry_equiv_pos_site_id
 _symmetry_equiv_pos_as_xyz
  1  'x, y, z'
loop_
 _atom_site_type_symbol
 _atom_site_label
 _atom_site_symmetry_multiplicity
 _atom_site_fract_x
 _atom_site_fract_y
 _atom_site_fract_z
 _atom_site_occupancy
  Tl  Tl0  1  0.66666700  0.33333300  0.68893200  1
  Tl  Tl1  1  0.33333300  0.66666700  0.31106800  1
  Te  Te2  1  0.83035300  0.16964700  0.22002700  1
  Te  Te3  1  0.83035300  0.66070600  0.22002700  1
  Te  Te4  1  0.33929400  0.16964700  0.22002700  1
  Te  Te5  1  0.66070600  0.83035300  0.77997300  1
  Te  Te6  1  0.16964700  0.83035300  0.77997300  1
  Te  Te7  1  0.16964700  0.33929400  0.77997300  1
  Pt  Pt8  1  0.00000000  0.00000000  0.00000000  1
  Pt  Pt9  1  0.00000000  0.50000000  0.00000000  1
  Pt  Pt10  1  0.50000000  0.00000000  0.00000000  1
  Pt  Pt11  1  0.50000000  0.50000000  0.00000000  1
