# generated using pymatgen
data_Tb2S3
_symmetry_space_group_name_H-M   'P 1'
_cell_length_a   3.89589500
_cell_length_b   10.50653900
_cell_length_c   10.70462600
_cell_angle_alpha   90.00000000
_cell_angle_beta   90.00000000
_cell_angle_gamma   90.00000000
_symmetry_Int_Tables_number   1
_chemical_formula_structural   Tb2S3
_chemical_formula_sum   'Tb8 S12'
_cell_volume   438.16574166
_cell_formula_units_Z   4
loop_
 _symmetry_equiv_pos_site_id
 _symmetry_equiv_pos_as_xyz
  1  'x, y, z'
loop_
 _atom_site_type_symbol
 _atom_site_label
 _atom_site_symmetry_multiplicity
 _atom_site_fract_x
 _atom_site_fract_y
 _atom_site_fract_z
 _atom_site_occupancy
  Tb  Tb0  1  0.25000000  0.99618000  0.80793400  1
  Tb  Tb1  1  0.75000000  0.00382000  0.19206600  1
  Tb  Tb2  1  0.75000000  0.49618000  0.69206600  1
  Tb  Tb3  1  0.25000000  0.50382000  0.30793400  1
  Tb  Tb4  1  0.25000000  0.18666000  0.49021300  1
  Tb  Tb5  1  0.75000000  0.81334000  0.50978700  1
  Tb  Tb6  1  0.75000000  0.68666000  0.00978700  1
  Tb  Tb7  1  0.25000000  0.31334000  0.99021300  1
  S  S8  1  0.25000000  0.30352700  0.72810900  1
  S  S9  1  0.75000000  0.69647300  0.27189100  1
  S  S10  1  0.75000000  0.80352700  0.77189100  1
  S  S11  1  0.25000000  0.19647300  0.22810900  1
  S  S12  1  0.25000000  0.94452900  0.38034200  1
  S  S13  1  0.75000000  0.05547100  0.61965800  1
  S  S14  1  0.75000000  0.44452900  0.11965800  1
  S  S15  1  0.25000000  0.55547100  0.88034200  1
  S  S16  1  0.25000000  0.87336400  0.04574600  1
  S  S17  1  0.75000000  0.12663600  0.95425400  1
  S  S18  1  0.75000000  0.37336400  0.45425400  1
  S  S19  1  0.25000000  0.62663600  0.54574600  1
