# generated using pymatgen
data_SrRhF6
_symmetry_space_group_name_H-M   'P 1'
_cell_length_a   4.86302212
_cell_length_b   4.86302212
_cell_length_c   4.86302247
_cell_angle_alpha   98.37779744
_cell_angle_beta   98.37779744
_cell_angle_gamma   98.37779904
_symmetry_Int_Tables_number   1
_chemical_formula_structural   SrRhF6
_chemical_formula_sum   'Sr1 Rh1 F6'
_cell_volume   110.91501149
_cell_formula_units_Z   1
loop_
 _symmetry_equiv_pos_site_id
 _symmetry_equiv_pos_as_xyz
  1  'x, y, z'
loop_
 _atom_site_type_symbol
 _atom_site_label
 _atom_site_symmetry_multiplicity
 _atom_site_fract_x
 _atom_site_fract_y
 _atom_site_fract_z
 _atom_site_occupancy
  Sr  Sr0  1  0.50000000  0.50000000  0.50000000  1
  Rh  Rh1  1  0.00000000  0.00000000  0.00000000  1
  F  F2  1  0.71010300  0.71010300  0.07021100  1
  F  F3  1  0.07021100  0.71010300  0.71010300  1
  F  F4  1  0.92978900  0.28989700  0.28989700  1
  F  F5  1  0.28989700  0.28989700  0.92978900  1
  F  F6  1  0.28989700  0.92978900  0.28989700  1
  F  F7  1  0.71010300  0.07021100  0.71010300  1
