# generated using pymatgen
data_Li2CeP2
_symmetry_space_group_name_H-M   'P 1'
_cell_length_a   4.15679606
_cell_length_b   4.15679606
_cell_length_c   6.63645800
_cell_angle_alpha   90.00000000
_cell_angle_beta   90.00000000
_cell_angle_gamma   120.00000090
_symmetry_Int_Tables_number   1
_chemical_formula_structural   Li2CeP2
_chemical_formula_sum   'Li2 Ce1 P2'
_cell_volume   99.30804053
_cell_formula_units_Z   1
loop_
 _symmetry_equiv_pos_site_id
 _symmetry_equiv_pos_as_xyz
  1  'x, y, z'
loop_
 _atom_site_type_symbol
 _atom_site_label
 _atom_site_symmetry_multiplicity
 _atom_site_fract_x
 _atom_site_fract_y
 _atom_site_fract_z
 _atom_site_occupancy
  Li  Li0  1  0.66666700  0.33333300  0.37769800  1
  Li  Li1  1  0.33333300  0.66666700  0.62230200  1
  Ce  Ce2  1  0.00000000  0.00000000  0.00000000  1
  P  P3  1  0.66666700  0.33333300  0.76908600  1
  P  P4  1  0.33333300  0.66666700  0.23091400  1
