# generated using pymatgen
data_EuGeAu
_symmetry_space_group_name_H-M   'P 1'
_cell_length_a   5.92119149
_cell_length_b   5.92119149
_cell_length_c   5.92119149
_cell_angle_alpha   133.84531982
_cell_angle_beta   102.26666621
_cell_angle_gamma   95.44120293
_symmetry_Int_Tables_number   1
_chemical_formula_structural   EuGeAu
_chemical_formula_sum   'Eu2 Ge2 Au2'
_cell_volume   137.40927483
_cell_formula_units_Z   2
loop_
 _symmetry_equiv_pos_site_id
 _symmetry_equiv_pos_as_xyz
  1  'x, y, z'
loop_
 _atom_site_type_symbol
 _atom_site_label
 _atom_site_symmetry_multiplicity
 _atom_site_fract_x
 _atom_site_fract_y
 _atom_site_fract_z
 _atom_site_occupancy
  Eu  Eu0  1  0.20316700  0.70316700  0.50000000  1
  Eu  Eu1  1  0.63175200  0.63175200  0.00000000  1
  Ge  Ge2  1  0.64501100  0.33342600  0.31158500  1
  Ge  Ge3  1  0.02184100  0.33342600  0.68841500  1
  Au  Au4  1  0.78410600  0.00194900  0.78215700  1
  Au  Au5  1  0.21979200  0.00194900  0.21784300  1
