# generated using pymatgen
data_SrLi2(SiN2)2
_symmetry_space_group_name_H-M   'P 1'
_cell_length_a   10.77563100
_cell_length_b   10.77563100
_cell_length_c   10.77563100
_cell_angle_alpha   90.00000000
_cell_angle_beta   90.00000000
_cell_angle_gamma   90.00000000
_symmetry_Int_Tables_number   1
_chemical_formula_structural   SrLi2(SiN2)2
_chemical_formula_sum   'Sr12 Li24 Si24 N48'
_cell_volume   1251.20402573
_cell_formula_units_Z   12
loop_
 _symmetry_equiv_pos_site_id
 _symmetry_equiv_pos_as_xyz
  1  'x, y, z'
loop_
 _atom_site_type_symbol
 _atom_site_label
 _atom_site_symmetry_multiplicity
 _atom_site_fract_x
 _atom_site_fract_y
 _atom_site_fract_z
 _atom_site_occupancy
  Sr  Sr0  1  0.50000000  0.00000000  0.00000000  1
  Sr  Sr1  1  0.00000000  0.00000000  0.50000000  1
  Sr  Sr2  1  0.00000000  0.50000000  0.00000000  1
  Sr  Sr3  1  0.50000000  0.50000000  0.50000000  1
  Sr  Sr4  1  0.21823900  0.21823900  0.21823900  1
  Sr  Sr5  1  0.28176100  0.78176100  0.71823900  1
  Sr  Sr6  1  0.71823900  0.28176100  0.78176100  1
  Sr  Sr7  1  0.78176100  0.71823900  0.28176100  1
  Sr  Sr8  1  0.78176100  0.78176100  0.78176100  1
  Sr  Sr9  1  0.71823900  0.21823900  0.28176100  1
  Sr  Sr10  1  0.28176100  0.71823900  0.21823900  1
  Sr  Sr11  1  0.21823900  0.28176100  0.71823900  1
  Li  Li12  1  0.23231600  0.97339000  0.11018800  1
  Li  Li13  1  0.26768400  0.02661000  0.61018800  1
  Li  Li14  1  0.73231600  0.52661000  0.88981200  1
  Li  Li15  1  0.76768400  0.47339000  0.38981200  1
  Li  Li16  1  0.11018800  0.23231600  0.97339000  1
  Li  Li17  1  0.97339000  0.11018800  0.23231600  1
  Li  Li18  1  0.38981200  0.76768400  0.47339000  1
  Li  Li19  1  0.02661000  0.61018800  0.26768400  1
  Li  Li20  1  0.61018800  0.26768400  0.02661000  1
  Li  Li21  1  0.52661000  0.88981200  0.73231600  1
  Li  Li22  1  0.88981200  0.73231600  0.52661000  1
  Li  Li23  1  0.47339000  0.38981200  0.76768400  1
  Li  Li24  1  0.76768400  0.02661000  0.88981200  1
  Li  Li25  1  0.73231600  0.97339000  0.38981200  1
  Li  Li26  1  0.26768400  0.47339000  0.11018800  1
  Li  Li27  1  0.23231600  0.52661000  0.61018800  1
  Li  Li28  1  0.88981200  0.76768400  0.02661000  1
  Li  Li29  1  0.02661000  0.88981200  0.76768400  1
  Li  Li30  1  0.61018800  0.23231600  0.52661000  1
  Li  Li31  1  0.97339000  0.38981200  0.73231600  1
  Li  Li32  1  0.38981200  0.73231600  0.97339000  1
  Li  Li33  1  0.47339000  0.11018800  0.26768400  1
  Li  Li34  1  0.11018800  0.26768400  0.47339000  1
  Li  Li35  1  0.52661000  0.61018800  0.23231600  1
  Si  Si36  1  0.47983600  0.37120400  0.24354300  1
  Si  Si37  1  0.02016400  0.62879600  0.74354300  1
  Si  Si38  1  0.97983600  0.12879600  0.75645700  1
  Si  Si39  1  0.52016400  0.87120400  0.25645700  1
  Si  Si40  1  0.24354300  0.47983600  0.37120400  1
  Si  Si41  1  0.37120400  0.24354300  0.47983600  1
  Si  Si42  1  0.25645700  0.52016400  0.87120400  1
  Si  Si43  1  0.62879600  0.74354300  0.02016400  1
  Si  Si44  1  0.74354300  0.02016400  0.62879600  1
  Si  Si45  1  0.12879600  0.75645700  0.97983600  1
  Si  Si46  1  0.75645700  0.97983600  0.12879600  1
  Si  Si47  1  0.87120400  0.25645700  0.52016400  1
  Si  Si48  1  0.52016400  0.62879600  0.75645700  1
  Si  Si49  1  0.97983600  0.37120400  0.25645700  1
  Si  Si50  1  0.02016400  0.87120400  0.24354300  1
  Si  Si51  1  0.47983600  0.12879600  0.74354300  1
  Si  Si52  1  0.75645700  0.52016400  0.62879600  1
  Si  Si53  1  0.62879600  0.75645700  0.52016400  1
  Si  Si54  1  0.74354300  0.47983600  0.12879600  1
  Si  Si55  1  0.37120400  0.25645700  0.97983600  1
  Si  Si56  1  0.25645700  0.97983600  0.37120400  1
  Si  Si57  1  0.87120400  0.24354300  0.02016400  1
  Si  Si58  1  0.24354300  0.02016400  0.87120400  1
  Si  Si59  1  0.12879600  0.74354300  0.47983600  1
  N  N60  1  0.27249600  0.12456400  0.99238800  1
  N  N61  1  0.22750400  0.87543600  0.49238800  1
  N  N62  1  0.77249600  0.37543600  0.00761200  1
  N  N63  1  0.72750400  0.62456400  0.50761200  1
  N  N64  1  0.99238800  0.27249600  0.12456400  1
  N  N65  1  0.12456400  0.99238800  0.27249600  1
  N  N66  1  0.50761200  0.72750400  0.62456400  1
  N  N67  1  0.87543600  0.49238800  0.22750400  1
  N  N68  1  0.49238800  0.22750400  0.87543600  1
  N  N69  1  0.37543600  0.00761200  0.77249600  1
  N  N70  1  0.00761200  0.77249600  0.37543600  1
  N  N71  1  0.62456400  0.50761200  0.72750400  1
  N  N72  1  0.72750400  0.87543600  0.00761200  1
  N  N73  1  0.77249600  0.12456400  0.50761200  1
  N  N74  1  0.22750400  0.62456400  0.99238800  1
  N  N75  1  0.27249600  0.37543600  0.49238800  1
  N  N76  1  0.00761200  0.72750400  0.87543600  1
  N  N77  1  0.87543600  0.00761200  0.72750400  1
  N  N78  1  0.49238800  0.27249600  0.37543600  1
  N  N79  1  0.12456400  0.50761200  0.77249600  1
  N  N80  1  0.50761200  0.77249600  0.12456400  1
  N  N81  1  0.62456400  0.99238800  0.22750400  1
  N  N82  1  0.99238800  0.22750400  0.62456400  1
  N  N83  1  0.37543600  0.49238800  0.27249600  1
  N  N84  1  0.26791800  0.12507200  0.44303800  1
  N  N85  1  0.23208200  0.87492800  0.94303800  1
  N  N86  1  0.76791800  0.37492800  0.55696200  1
  N  N87  1  0.73208200  0.62507200  0.05696200  1
  N  N88  1  0.44303800  0.26791800  0.12507200  1
  N  N89  1  0.12507200  0.44303800  0.26791800  1
  N  N90  1  0.05696200  0.73208200  0.62507200  1
  N  N91  1  0.87492800  0.94303800  0.23208200  1
  N  N92  1  0.94303800  0.23208200  0.87492800  1
  N  N93  1  0.37492800  0.55696200  0.76791800  1
  N  N94  1  0.55696200  0.76791800  0.37492800  1
  N  N95  1  0.62507200  0.05696200  0.73208200  1
  N  N96  1  0.73208200  0.87492800  0.55696200  1
  N  N97  1  0.76791800  0.12507200  0.05696200  1
  N  N98  1  0.23208200  0.62507200  0.44303800  1
  N  N99  1  0.26791800  0.37492800  0.94303800  1
  N  N100  1  0.55696200  0.73208200  0.87492800  1
  N  N101  1  0.87492800  0.55696200  0.73208200  1
  N  N102  1  0.94303800  0.26791800  0.37492800  1
  N  N103  1  0.12507200  0.05696200  0.76791800  1
  N  N104  1  0.05696200  0.76791800  0.12507200  1
  N  N105  1  0.62507200  0.44303800  0.23208200  1
  N  N106  1  0.44303800  0.23208200  0.62507200  1
  N  N107  1  0.37492800  0.94303800  0.26791800  1
