# generated using pymatgen
data_MnAuO2
_symmetry_space_group_name_H-M   'P 1'
_cell_length_a   3.24402820
_cell_length_b   5.30976014
_cell_length_c   6.52375052
_cell_angle_alpha   85.67474979
_cell_angle_beta   72.80476137
_cell_angle_gamma   95.05450547
_symmetry_Int_Tables_number   1
_chemical_formula_structural   MnAuO2
_chemical_formula_sum   'Mn2 Au2 O4'
_cell_volume   106.32195395
_cell_formula_units_Z   2
loop_
 _symmetry_equiv_pos_site_id
 _symmetry_equiv_pos_as_xyz
  1  'x, y, z'
loop_
 _atom_site_type_symbol
 _atom_site_label
 _atom_site_symmetry_multiplicity
 _atom_site_fract_x
 _atom_site_fract_y
 _atom_site_fract_z
 _atom_site_occupancy
  Mn  Mn0  1  0.24999700  0.75000000  0.49999800  1
  Mn  Mn1  1  0.75000200  0.25000000  0.50000100  1
  Au  Au2  1  0.50268900  0.49952200  0.00005500  1
  Au  Au3  1  0.99731200  0.00047600  0.99994500  1
  O  O4  1  0.18456800  0.05026700  0.66447800  1
  O  O5  1  0.68679700  0.54998500  0.66462500  1
  O  O6  1  0.31543300  0.44973400  0.33552200  1
  O  O7  1  0.81320300  0.95001600  0.33537500  1
