# generated using pymatgen
data_Re3Ru
_symmetry_space_group_name_H-M   'P 1'
_cell_length_a   5.23929945
_cell_length_b   5.23929945
_cell_length_c   5.23929945
_cell_angle_alpha   149.38607551
_cell_angle_beta   125.15627995
_cell_angle_gamma   64.12387489
_symmetry_Int_Tables_number   1
_chemical_formula_structural   Re3Ru
_chemical_formula_sum   'Re3 Ru1'
_cell_volume   59.27345484
_cell_formula_units_Z   1
loop_
 _symmetry_equiv_pos_site_id
 _symmetry_equiv_pos_as_xyz
  1  'x, y, z'
loop_
 _atom_site_type_symbol
 _atom_site_label
 _atom_site_symmetry_multiplicity
 _atom_site_fract_x
 _atom_site_fract_y
 _atom_site_fract_z
 _atom_site_occupancy
  Re  Re0  1  0.82770700  0.50000000  0.32770700  1
  Re  Re1  1  0.25349300  0.25161700  0.00187500  1
  Re  Re2  1  0.75025800  0.74838300  0.00187500  1
  Ru  Ru3  1  0.33514100  0.00000000  0.33514100  1
