# generated using pymatgen
data_Tb(BIr)4
_symmetry_space_group_name_H-M   'P 1'
_cell_length_a   7.64396300
_cell_length_b   7.64396300
_cell_length_c   3.99155500
_cell_angle_alpha   90.00000000
_cell_angle_beta   90.00000000
_cell_angle_gamma   90.00000000
_symmetry_Int_Tables_number   1
_chemical_formula_structural   Tb(BIr)4
_chemical_formula_sum   'Tb2 B8 Ir8'
_cell_volume   233.22723859
_cell_formula_units_Z   2
loop_
 _symmetry_equiv_pos_site_id
 _symmetry_equiv_pos_as_xyz
  1  'x, y, z'
loop_
 _atom_site_type_symbol
 _atom_site_label
 _atom_site_symmetry_multiplicity
 _atom_site_fract_x
 _atom_site_fract_y
 _atom_site_fract_z
 _atom_site_occupancy
  Tb  Tb0  1  0.50000000  0.50000000  0.00000000  1
  Tb  Tb1  1  0.00000000  0.00000000  0.50000000  1
  B  B2  1  0.84202100  0.27837600  0.88857100  1
  B  B3  1  0.15797900  0.72162400  0.88857100  1
  B  B4  1  0.27837600  0.15797900  0.11142900  1
  B  B5  1  0.72162400  0.84202100  0.11142900  1
  B  B6  1  0.77837600  0.65797900  0.38857100  1
  B  B7  1  0.22162400  0.34202100  0.38857100  1
  B  B8  1  0.34202100  0.77837600  0.61142900  1
  B  B9  1  0.65797900  0.22162400  0.61142900  1
  Ir  Ir10  1  0.89058000  0.65996900  0.88718500  1
  Ir  Ir11  1  0.10942000  0.34003100  0.88718500  1
  Ir  Ir12  1  0.34003100  0.89058000  0.11281500  1
  Ir  Ir13  1  0.65996900  0.10942000  0.11281500  1
  Ir  Ir14  1  0.84003100  0.39058000  0.38718500  1
  Ir  Ir15  1  0.15996900  0.60942000  0.38718500  1
  Ir  Ir16  1  0.39058000  0.15996900  0.61281500  1
  Ir  Ir17  1  0.60942000  0.84003100  0.61281500  1
