# generated using pymatgen
data_HoH2ClO2
_symmetry_space_group_name_H-M   'P 1'
_cell_length_a   3.61867000
_cell_length_b   6.18299700
_cell_length_c   6.63808987
_cell_angle_alpha   73.06880557
_cell_angle_beta   90.00000000
_cell_angle_gamma   90.00000000
_symmetry_Int_Tables_number   1
_chemical_formula_structural   HoH2ClO2
_chemical_formula_sum   'Ho2 H4 Cl2 O4'
_cell_volume   142.08445538
_cell_formula_units_Z   2
loop_
 _symmetry_equiv_pos_site_id
 _symmetry_equiv_pos_as_xyz
  1  'x, y, z'
loop_
 _atom_site_type_symbol
 _atom_site_label
 _atom_site_symmetry_multiplicity
 _atom_site_fract_x
 _atom_site_fract_y
 _atom_site_fract_z
 _atom_site_occupancy
  Ho  Ho0  1  0.75000000  0.71278600  0.11454700  1
  Ho  Ho1  1  0.25000000  0.28721400  0.88545300  1
  H  H2  1  0.75000000  0.12605900  0.23039200  1
  H  H3  1  0.25000000  0.34450300  0.30542800  1
  H  H4  1  0.75000000  0.65549700  0.69457200  1
  H  H5  1  0.25000000  0.87394100  0.76960800  1
  Cl  Cl6  1  0.25000000  0.76759400  0.42984100  1
  Cl  Cl7  1  0.75000000  0.23240600  0.57015900  1
  O  O8  1  0.75000000  0.10444800  0.09029300  1
  O  O9  1  0.25000000  0.44736300  0.16205700  1
  O  O10  1  0.75000000  0.55263700  0.83794300  1
  O  O11  1  0.25000000  0.89555200  0.90970700  1
