# generated using pymatgen
data_Na3Mn2SbO6
_symmetry_space_group_name_H-M   'P 1'
_cell_length_a   5.55753018
_cell_length_b   5.78683475
_cell_length_c   5.55759750
_cell_angle_alpha   80.62129224
_cell_angle_beta   119.86228591
_cell_angle_gamma   80.62160279
_symmetry_Int_Tables_number   1
_chemical_formula_structural   Na3Mn2SbO6
_chemical_formula_sum   'Na3 Mn2 Sb1 O6'
_cell_volume   146.57642016
_cell_formula_units_Z   1
loop_
 _symmetry_equiv_pos_site_id
 _symmetry_equiv_pos_as_xyz
  1  'x, y, z'
loop_
 _atom_site_type_symbol
 _atom_site_label
 _atom_site_symmetry_multiplicity
 _atom_site_fract_x
 _atom_site_fract_y
 _atom_site_fract_z
 _atom_site_occupancy
  Na  Na0  1  0.50000900  0.50000000  0.50000000  1
  Na  Na1  1  0.82864600  0.50000400  0.17135200  1
  Na  Na2  1  0.17135600  0.49999800  0.82865100  1
  Mn  Mn3  1  0.33375000  0.99997900  0.66624000  1
  Mn  Mn4  1  0.66623800  0.00001400  0.33377800  1
  Sb  Sb5  1  0.00000600  0.00000600  0.00000500  1
  O  O6  1  0.23578600  0.20552700  0.23576500  1
  O  O7  1  0.76422700  0.79447100  0.76420200  1
  O  O8  1  0.37541200  0.79079500  0.06919200  1
  O  O9  1  0.06916000  0.79078600  0.37539000  1
  O  O10  1  0.93080600  0.20921200  0.62458600  1
  O  O11  1  0.62460300  0.20920800  0.93083800  1
