# generated using pymatgen
data_CaRhF6
_symmetry_space_group_name_H-M   'P 1'
_cell_length_a   5.83263771
_cell_length_b   5.83263771
_cell_length_c   5.83263832
_cell_angle_alpha   55.77672151
_cell_angle_beta   55.77672151
_cell_angle_gamma   55.77672411
_symmetry_Int_Tables_number   1
_chemical_formula_structural   CaRhF6
_chemical_formula_sum   'Ca1 Rh1 F6'
_cell_volume   126.56573388
_cell_formula_units_Z   1
loop_
 _symmetry_equiv_pos_site_id
 _symmetry_equiv_pos_as_xyz
  1  'x, y, z'
loop_
 _atom_site_type_symbol
 _atom_site_label
 _atom_site_symmetry_multiplicity
 _atom_site_fract_x
 _atom_site_fract_y
 _atom_site_fract_z
 _atom_site_occupancy
  Ca  Ca0  1  0.50000000  0.50000000  0.50000000  1
  Rh  Rh1  1  0.00000000  0.00000000  0.00000000  1
  F  F2  1  0.22311300  0.64447500  0.90098400  1
  F  F3  1  0.64447500  0.90098400  0.22311300  1
  F  F4  1  0.09901600  0.77688700  0.35552500  1
  F  F5  1  0.35552500  0.09901600  0.77688700  1
  F  F6  1  0.77688700  0.35552500  0.09901600  1
  F  F7  1  0.90098400  0.22311300  0.64447500  1
