# generated using pymatgen
data_ErSe2
_symmetry_space_group_name_H-M   'P 1'
_cell_length_a   4.04868300
_cell_length_b   4.04868300
_cell_length_c   8.28222500
_cell_angle_alpha   90.00000000
_cell_angle_beta   90.00000000
_cell_angle_gamma   90.00000000
_symmetry_Int_Tables_number   1
_chemical_formula_structural   ErSe2
_chemical_formula_sum   'Er2 Se4'
_cell_volume   135.76085764
_cell_formula_units_Z   2
loop_
 _symmetry_equiv_pos_site_id
 _symmetry_equiv_pos_as_xyz
  1  'x, y, z'
loop_
 _atom_site_type_symbol
 _atom_site_label
 _atom_site_symmetry_multiplicity
 _atom_site_fract_x
 _atom_site_fract_y
 _atom_site_fract_z
 _atom_site_occupancy
  Er  Er0  1  0.00000000  0.50000000  0.72607600  1
  Er  Er1  1  0.50000000  0.00000000  0.27392400  1
  Se  Se2  1  0.50000000  0.50000000  0.00000000  1
  Se  Se3  1  0.00000000  0.00000000  0.00000000  1
  Se  Se4  1  0.50000000  0.00000000  0.62956900  1
  Se  Se5  1  0.00000000  0.50000000  0.37043100  1
