# generated using pymatgen
data_TbH3
_symmetry_space_group_name_H-M   'P 1'
_cell_length_a   6.37635886
_cell_length_b   6.37635886
_cell_length_c   6.62698600
_cell_angle_alpha   90.00000000
_cell_angle_beta   90.00000000
_cell_angle_gamma   120.00000888
_symmetry_Int_Tables_number   1
_chemical_formula_structural   TbH3
_chemical_formula_sum   'Tb6 H18'
_cell_volume   233.34158714
_cell_formula_units_Z   6
loop_
 _symmetry_equiv_pos_site_id
 _symmetry_equiv_pos_as_xyz
  1  'x, y, z'
loop_
 _atom_site_type_symbol
 _atom_site_label
 _atom_site_symmetry_multiplicity
 _atom_site_fract_x
 _atom_site_fract_y
 _atom_site_fract_z
 _atom_site_occupancy
  Tb  Tb0  1  0.00000000  0.66340400  0.75000000  1
  Tb  Tb1  1  0.33659600  0.33659600  0.75000000  1
  Tb  Tb2  1  0.66340400  0.00000000  0.75000000  1
  Tb  Tb3  1  0.66340400  0.66340400  0.25000000  1
  Tb  Tb4  1  0.00000000  0.33659600  0.25000000  1
  Tb  Tb5  1  0.33659600  0.00000000  0.25000000  1
  H  H6  1  0.67821800  0.65109900  0.59295700  1
  H  H7  1  0.34890100  0.02711900  0.59295700  1
  H  H8  1  0.97288100  0.32178200  0.59295700  1
  H  H9  1  0.33333300  0.66666700  0.68103400  1
  H  H10  1  0.00000000  0.00000000  0.75000000  1
  H  H11  1  0.66666700  0.33333300  0.81896600  1
  H  H12  1  0.02711900  0.34890100  0.90704300  1
  H  H13  1  0.65109900  0.67821800  0.90704300  1
  H  H14  1  0.32178200  0.97288100  0.90704300  1
  H  H15  1  0.67821800  0.02711900  0.09295700  1
  H  H16  1  0.34890100  0.32178200  0.09295700  1
  H  H17  1  0.97288100  0.65109900  0.09295700  1
  H  H18  1  0.33333300  0.66666700  0.18103400  1
  H  H19  1  0.00000000  0.00000000  0.25000000  1
  H  H20  1  0.66666700  0.33333300  0.31896600  1
  H  H21  1  0.02711900  0.67821800  0.40704300  1
  H  H22  1  0.65109900  0.97288100  0.40704300  1
  H  H23  1  0.32178200  0.34890100  0.40704300  1
