# generated using pymatgen
data_SrGaGeH
_symmetry_space_group_name_H-M   'P 1'
_cell_length_a   4.26473984
_cell_length_b   4.26473984
_cell_length_c   4.96421200
_cell_angle_alpha   90.00000000
_cell_angle_beta   90.00000000
_cell_angle_gamma   119.99999757
_symmetry_Int_Tables_number   1
_chemical_formula_structural   SrGaGeH
_chemical_formula_sum   'Sr1 Ga1 Ge1 H1'
_cell_volume   78.19267119
_cell_formula_units_Z   1
loop_
 _symmetry_equiv_pos_site_id
 _symmetry_equiv_pos_as_xyz
  1  'x, y, z'
loop_
 _atom_site_type_symbol
 _atom_site_label
 _atom_site_symmetry_multiplicity
 _atom_site_fract_x
 _atom_site_fract_y
 _atom_site_fract_z
 _atom_site_occupancy
  Sr  Sr0  1  0.33333300  0.66666700  0.99800300  1
  Ga  Ga1  1  0.66666700  0.33333300  0.55720700  1
  Ge  Ge2  1  0.00000000  0.00000000  0.43618600  1
  H  H3  1  0.66666700  0.33333300  0.91420700  1
