# generated using pymatgen
data_RbAuS
_symmetry_space_group_name_H-M   'P 1'
_cell_length_a   5.29380672
_cell_length_b   5.29380672
_cell_length_c   7.09793500
_cell_angle_alpha   90.00000000
_cell_angle_beta   90.00000000
_cell_angle_gamma   100.88159862
_symmetry_Int_Tables_number   1
_chemical_formula_structural   RbAuS
_chemical_formula_sum   'Rb2 Au2 S2'
_cell_volume   195.33867810
_cell_formula_units_Z   2
loop_
 _symmetry_equiv_pos_site_id
 _symmetry_equiv_pos_as_xyz
  1  'x, y, z'
loop_
 _atom_site_type_symbol
 _atom_site_label
 _atom_site_symmetry_multiplicity
 _atom_site_fract_x
 _atom_site_fract_y
 _atom_site_fract_z
 _atom_site_occupancy
  Rb  Rb0  1  0.62445100  0.37554900  0.25000000  1
  Rb  Rb1  1  0.37554900  0.62445100  0.75000000  1
  Au  Au2  1  0.00000000  0.00000000  0.00000000  1
  Au  Au3  1  0.00000000  0.00000000  0.50000000  1
  S  S4  1  0.18628400  0.81371600  0.25000000  1
  S  S5  1  0.81371600  0.18628400  0.75000000  1
