# generated using pymatgen
data_HfCoAs
_symmetry_space_group_name_H-M   'P 1'
_cell_length_a   3.82430500
_cell_length_b   6.47205700
_cell_length_c   7.25943200
_cell_angle_alpha   90.00000000
_cell_angle_beta   90.00000000
_cell_angle_gamma   90.00000000
_symmetry_Int_Tables_number   1
_chemical_formula_structural   HfCoAs
_chemical_formula_sum   'Hf4 Co4 As4'
_cell_volume   179.67907217
_cell_formula_units_Z   4
loop_
 _symmetry_equiv_pos_site_id
 _symmetry_equiv_pos_as_xyz
  1  'x, y, z'
loop_
 _atom_site_type_symbol
 _atom_site_label
 _atom_site_symmetry_multiplicity
 _atom_site_fract_x
 _atom_site_fract_y
 _atom_site_fract_z
 _atom_site_occupancy
  Hf  Hf0  1  0.25000000  0.52010600  0.18698600  1
  Hf  Hf1  1  0.75000000  0.47989400  0.81301400  1
  Hf  Hf2  1  0.25000000  0.02010600  0.31301400  1
  Hf  Hf3  1  0.75000000  0.97989400  0.68698600  1
  Co  Co4  1  0.25000000  0.63887300  0.56367700  1
  Co  Co5  1  0.75000000  0.36112700  0.43632300  1
  Co  Co6  1  0.25000000  0.13887300  0.93632300  1
  Co  Co7  1  0.75000000  0.86112700  0.06367700  1
  As  As8  1  0.75000000  0.73214900  0.38422100  1
  As  As9  1  0.25000000  0.26785100  0.61577900  1
  As  As10  1  0.75000000  0.23214900  0.11577900  1
  As  As11  1  0.25000000  0.76785100  0.88422100  1
