# generated using pymatgen
data_K3Gd(PO4)2
_symmetry_space_group_name_H-M   'P 1'
_cell_length_a   5.67613000
_cell_length_b   7.51437100
_cell_length_c   9.53462285
_cell_angle_alpha   88.59786972
_cell_angle_beta   90.00000000
_cell_angle_gamma   90.00000000
_symmetry_Int_Tables_number   1
_chemical_formula_structural   K3Gd(PO4)2
_chemical_formula_sum   'K6 Gd2 P4 O16'
_cell_volume   406.55417941
_cell_formula_units_Z   2
loop_
 _symmetry_equiv_pos_site_id
 _symmetry_equiv_pos_as_xyz
  1  'x, y, z'
loop_
 _atom_site_type_symbol
 _atom_site_label
 _atom_site_symmetry_multiplicity
 _atom_site_fract_x
 _atom_site_fract_y
 _atom_site_fract_z
 _atom_site_occupancy
  K  K0  1  0.75000000  0.63665800  0.59198500  1
  K  K1  1  0.25000000  0.36334200  0.40801500  1
  K  K2  1  0.75000000  0.49339900  0.18942500  1
  K  K3  1  0.25000000  0.50660100  0.81057500  1
  K  K4  1  0.25000000  0.80084900  0.08268500  1
  K  K5  1  0.75000000  0.19915100  0.91731500  1
  Gd  Gd6  1  0.75000000  0.99383000  0.29173300  1
  Gd  Gd7  1  0.25000000  0.00617000  0.70826700  1
  P  P8  1  0.75000000  0.76895100  0.91086200  1
  P  P9  1  0.25000000  0.23104900  0.08913800  1
  P  P10  1  0.75000000  0.18992100  0.57231200  1
  P  P11  1  0.25000000  0.81007900  0.42768800  1
  O  O12  1  0.75000000  0.82515600  0.06741500  1
  O  O13  1  0.25000000  0.17484400  0.93258500  1
  O  O14  1  0.75000000  0.56542700  0.89781300  1
  O  O15  1  0.25000000  0.43457300  0.10218700  1
  O  O16  1  0.02588300  0.15161600  0.16360300  1
  O  O17  1  0.52588300  0.84838400  0.83639700  1
  O  O18  1  0.97411700  0.84838400  0.83639700  1
  O  O19  1  0.47411700  0.15161600  0.16360300  1
  O  O20  1  0.75000000  0.28254200  0.42369100  1
  O  O21  1  0.25000000  0.71745800  0.57630900  1
  O  O22  1  0.52581700  0.24405700  0.65631000  1
  O  O23  1  0.02581700  0.75594300  0.34369000  1
  O  O24  1  0.47418300  0.75594300  0.34369000  1
  O  O25  1  0.97418300  0.24405700  0.65631000  1
  O  O26  1  0.75000000  0.98674600  0.54683600  1
  O  O27  1  0.25000000  0.01325400  0.45316400  1
