# generated using pymatgen
data_MoPt2
_symmetry_space_group_name_H-M   'P 1'
_cell_length_a   4.84790974
_cell_length_b   4.84790974
_cell_length_c   4.84790974
_cell_angle_alpha   146.85915319
_cell_angle_beta   131.23052165
_cell_angle_gamma   60.23661170
_symmetry_Int_Tables_number   1
_chemical_formula_structural   MoPt2
_chemical_formula_sum   'Mo1 Pt2'
_cell_volume   46.41729366
_cell_formula_units_Z   1
loop_
 _symmetry_equiv_pos_site_id
 _symmetry_equiv_pos_as_xyz
  1  'x, y, z'
loop_
 _atom_site_type_symbol
 _atom_site_label
 _atom_site_symmetry_multiplicity
 _atom_site_fract_x
 _atom_site_fract_y
 _atom_site_fract_z
 _atom_site_occupancy
  Mo  Mo0  1  0.00000000  0.00000000  0.00000000  1
  Pt  Pt1  1  0.66376800  0.66376800  0.00000000  1
  Pt  Pt2  1  0.33623200  0.33623200  0.00000000  1
