# generated using pymatgen
data_K3BP2
_symmetry_space_group_name_H-M   'P 1'
_cell_length_a   6.52226228
_cell_length_b   6.52226228
_cell_length_c   8.95878306
_cell_angle_alpha   75.12941147
_cell_angle_beta   75.12941147
_cell_angle_gamma   86.52831763
_symmetry_Int_Tables_number   1
_chemical_formula_structural   K3BP2
_chemical_formula_sum   'K6 B2 P4'
_cell_volume   355.99949836
_cell_formula_units_Z   2
loop_
 _symmetry_equiv_pos_site_id
 _symmetry_equiv_pos_as_xyz
  1  'x, y, z'
loop_
 _atom_site_type_symbol
 _atom_site_label
 _atom_site_symmetry_multiplicity
 _atom_site_fract_x
 _atom_site_fract_y
 _atom_site_fract_z
 _atom_site_occupancy
  K  K0  1  0.34920300  0.65079700  0.25000000  1
  K  K1  1  0.65079700  0.34920300  0.75000000  1
  K  K2  1  0.15176400  0.25208800  0.01898300  1
  K  K3  1  0.74791200  0.84823600  0.48101700  1
  K  K4  1  0.84823600  0.74791200  0.98101700  1
  K  K5  1  0.25208800  0.15176400  0.51898300  1
  B  B6  1  0.71742200  0.28257800  0.25000000  1
  B  B7  1  0.28257800  0.71742200  0.75000000  1
  P  P8  1  0.85265700  0.40815700  0.35195000  1
  P  P9  1  0.59184300  0.14734300  0.14805000  1
  P  P10  1  0.40815700  0.85265700  0.85195000  1
  P  P11  1  0.14734300  0.59184300  0.64805000  1
