# generated using pymatgen
data_LiPF6
_symmetry_space_group_name_H-M   'P 1'
_cell_length_a   5.17418243
_cell_length_b   5.17418243
_cell_length_c   5.17418229
_cell_angle_alpha   58.06191383
_cell_angle_beta   58.06191383
_cell_angle_gamma   58.06191010
_symmetry_Int_Tables_number   1
_chemical_formula_structural   LiPF6
_chemical_formula_sum   'Li1 P1 F6'
_cell_volume   93.59808460
_cell_formula_units_Z   1
loop_
 _symmetry_equiv_pos_site_id
 _symmetry_equiv_pos_as_xyz
  1  'x, y, z'
loop_
 _atom_site_type_symbol
 _atom_site_label
 _atom_site_symmetry_multiplicity
 _atom_site_fract_x
 _atom_site_fract_y
 _atom_site_fract_z
 _atom_site_occupancy
  Li  Li0  1  0.50000000  0.50000000  0.50000000  1
  P  P1  1  0.00000000  0.00000000  0.00000000  1
  F  F2  1  0.78325500  0.30605700  0.13104200  1
  F  F3  1  0.30605700  0.13104200  0.78325500  1
  F  F4  1  0.13104200  0.78325500  0.30605700  1
  F  F5  1  0.69394300  0.86895800  0.21674500  1
  F  F6  1  0.86895800  0.21674500  0.69394300  1
  F  F7  1  0.21674500  0.69394300  0.86895800  1
