# generated using pymatgen
data_CdAuO2
_symmetry_space_group_name_H-M   'P 1'
_cell_length_a   4.13686000
_cell_length_b   5.60004043
_cell_length_c   6.11016033
_cell_angle_alpha   115.93008557
_cell_angle_beta   106.41467678
_cell_angle_gamma   86.88551715
_symmetry_Int_Tables_number   1
_chemical_formula_structural   CdAuO2
_chemical_formula_sum   'Cd2 Au2 O4'
_cell_volume   121.71878298
_cell_formula_units_Z   2
loop_
 _symmetry_equiv_pos_site_id
 _symmetry_equiv_pos_as_xyz
  1  'x, y, z'
loop_
 _atom_site_type_symbol
 _atom_site_label
 _atom_site_symmetry_multiplicity
 _atom_site_fract_x
 _atom_site_fract_y
 _atom_site_fract_z
 _atom_site_occupancy
  Cd  Cd0  1  0.27454000  0.27036000  0.52929000  1
  Cd  Cd1  1  0.72546000  0.72964000  0.47071000  1
  Au  Au2  1  0.50000000  0.00000000  0.00000000  1
  Au  Au3  1  0.00000000  0.50000000  0.00000000  1
  O  O4  1  0.67775000  0.16199000  0.80855000  1
  O  O5  1  0.32225000  0.83801000  0.19145000  1
  O  O6  1  0.71900000  0.28154000  0.36009000  1
  O  O7  1  0.28100000  0.71846000  0.63991000  1
