# generated using pymatgen
data_SrPd
_symmetry_space_group_name_H-M   'P 1'
_cell_length_a   6.10746359
_cell_length_b   6.10746359
_cell_length_c   4.55103400
_cell_angle_alpha   90.00000000
_cell_angle_beta   90.00000000
_cell_angle_gamma   139.07800770
_symmetry_Int_Tables_number   1
_chemical_formula_structural   SrPd
_chemical_formula_sum   'Sr2 Pd2'
_cell_volume   111.19714453
_cell_formula_units_Z   2
loop_
 _symmetry_equiv_pos_site_id
 _symmetry_equiv_pos_as_xyz
  1  'x, y, z'
loop_
 _atom_site_type_symbol
 _atom_site_label
 _atom_site_symmetry_multiplicity
 _atom_site_fract_x
 _atom_site_fract_y
 _atom_site_fract_z
 _atom_site_occupancy
  Sr  Sr0  1  0.86107600  0.13892400  0.75000000  1
  Sr  Sr1  1  0.13892400  0.86107600  0.25000000  1
  Pd  Pd2  1  0.57230000  0.42770000  0.75000000  1
  Pd  Pd3  1  0.42770000  0.57230000  0.25000000  1
