# generated using pymatgen
data_AcF3
_symmetry_space_group_name_H-M   'P 1'
_cell_length_a   4.46169961
_cell_length_b   4.46169961
_cell_length_c   4.46169961
_cell_angle_alpha   126.63973896
_cell_angle_beta   126.63973896
_cell_angle_gamma   78.83920433
_symmetry_Int_Tables_number   1
_chemical_formula_structural   AcF3
_chemical_formula_sum   'Ac1 F3'
_cell_volume   55.33234433
_cell_formula_units_Z   1
loop_
 _symmetry_equiv_pos_site_id
 _symmetry_equiv_pos_as_xyz
  1  'x, y, z'
loop_
 _atom_site_type_symbol
 _atom_site_label
 _atom_site_symmetry_multiplicity
 _atom_site_fract_x
 _atom_site_fract_y
 _atom_site_fract_z
 _atom_site_occupancy
  Ac  Ac0  1  0.00000000  0.00000000  0.00000000  1
  F  F1  1  0.75000000  0.25000000  0.50000000  1
  F  F2  1  0.25000000  0.75000000  0.50000000  1
  F  F3  1  0.50000000  0.50000000  0.00000000  1
