# generated using pymatgen
data_K2NaAlAs2
_symmetry_space_group_name_H-M   'P 1'
_cell_length_a   8.91416716
_cell_length_b   8.91416716
_cell_length_c   8.91416716
_cell_angle_alpha   137.03706971
_cell_angle_beta   135.08862010
_cell_angle_gamma   63.89647492
_symmetry_Int_Tables_number   1
_chemical_formula_structural   K2NaAlAs2
_chemical_formula_sum   'K4 Na2 Al2 As4'
_cell_volume   336.29022817
_cell_formula_units_Z   2
loop_
 _symmetry_equiv_pos_site_id
 _symmetry_equiv_pos_as_xyz
  1  'x, y, z'
loop_
 _atom_site_type_symbol
 _atom_site_label
 _atom_site_symmetry_multiplicity
 _atom_site_fract_x
 _atom_site_fract_y
 _atom_site_fract_z
 _atom_site_occupancy
  K  K0  1  0.08377700  0.32514300  0.75863400  1
  K  K1  1  0.43349100  0.17485700  0.25863400  1
  K  K2  1  0.91622300  0.67485700  0.24136600  1
  K  K3  1  0.56650900  0.82514300  0.74136600  1
  Na  Na4  1  0.50000000  0.75000000  0.25000000  1
  Na  Na5  1  0.50000000  0.25000000  0.75000000  1
  Al  Al6  1  0.00000000  0.75000000  0.75000000  1
  Al  Al7  1  0.00000000  0.25000000  0.25000000  1
  As  As8  1  0.10619300  0.90576800  0.20042500  1
  As  As9  1  0.89380700  0.09423200  0.79957500  1
  As  As10  1  0.29465700  0.59423200  0.70042500  1
  As  As11  1  0.70534300  0.40576800  0.29957500  1
