# generated using pymatgen
data_TmB4Os
_symmetry_space_group_name_H-M   'P 1'
_cell_length_a   3.54697600
_cell_length_b   5.93438700
_cell_length_c   11.47632100
_cell_angle_alpha   90.00000000
_cell_angle_beta   90.00000000
_cell_angle_gamma   90.00000000
_symmetry_Int_Tables_number   1
_chemical_formula_structural   TmB4Os
_chemical_formula_sum   'Tm4 B16 Os4'
_cell_volume   241.56655272
_cell_formula_units_Z   4
loop_
 _symmetry_equiv_pos_site_id
 _symmetry_equiv_pos_as_xyz
  1  'x, y, z'
loop_
 _atom_site_type_symbol
 _atom_site_label
 _atom_site_symmetry_multiplicity
 _atom_site_fract_x
 _atom_site_fract_y
 _atom_site_fract_z
 _atom_site_occupancy
  Tm  Tm0  1  0.50000000  0.12871100  0.64995400  1
  Tm  Tm1  1  0.50000000  0.87128900  0.35004600  1
  Tm  Tm2  1  0.50000000  0.62871100  0.85004600  1
  Tm  Tm3  1  0.50000000  0.37128900  0.14995400  1
  B  B4  1  0.00000000  0.47567100  0.69217500  1
  B  B5  1  0.00000000  0.52432900  0.30782500  1
  B  B6  1  0.00000000  0.97567100  0.80782500  1
  B  B7  1  0.00000000  0.02432900  0.19217500  1
  B  B8  1  0.00000000  0.29075500  0.81384200  1
  B  B9  1  0.00000000  0.70924500  0.18615800  1
  B  B10  1  0.00000000  0.79075500  0.68615800  1
  B  B11  1  0.00000000  0.20924500  0.31384200  1
  B  B12  1  0.00000000  0.36465300  0.97005100  1
  B  B13  1  0.00000000  0.63534700  0.02994900  1
  B  B14  1  0.00000000  0.86465300  0.52994900  1
  B  B15  1  0.00000000  0.13534700  0.47005100  1
  B  B16  1  0.00000000  0.38693600  0.54718600  1
  B  B17  1  0.00000000  0.61306400  0.45281400  1
  B  B18  1  0.00000000  0.88693600  0.95281400  1
  B  B19  1  0.00000000  0.11306400  0.04718600  1
  Os  Os20  1  0.50000000  0.14210800  0.90605900  1
  Os  Os21  1  0.50000000  0.85789200  0.09394100  1
  Os  Os22  1  0.50000000  0.64210800  0.59394100  1
  Os  Os23  1  0.50000000  0.35789200  0.40605900  1
