# generated using pymatgen
data_Rb2SnSe3
_symmetry_space_group_name_H-M   'P 1'
_cell_length_a   7.32105600
_cell_length_b   8.09231460
_cell_length_c   9.18673167
_cell_angle_alpha   74.84592878
_cell_angle_beta   71.70350415
_cell_angle_gamma   66.19095739
_symmetry_Int_Tables_number   1
_chemical_formula_structural   Rb2SnSe3
_chemical_formula_sum   'Rb4 Sn2 Se6'
_cell_volume   467.05149661
_cell_formula_units_Z   2
loop_
 _symmetry_equiv_pos_site_id
 _symmetry_equiv_pos_as_xyz
  1  'x, y, z'
loop_
 _atom_site_type_symbol
 _atom_site_label
 _atom_site_symmetry_multiplicity
 _atom_site_fract_x
 _atom_site_fract_y
 _atom_site_fract_z
 _atom_site_occupancy
  Rb  Rb0  1  0.65333500  0.46205700  0.68578800  1
  Rb  Rb1  1  0.34666500  0.53794300  0.31421200  1
  Rb  Rb2  1  0.90297700  0.79812600  0.88183000  1
  Rb  Rb3  1  0.09702300  0.20187400  0.11817000  1
  Sn  Sn4  1  0.63874400  0.93854700  0.31274200  1
  Sn  Sn5  1  0.36125600  0.06145300  0.68725800  1
  Se  Se6  1  0.26607600  0.96131300  0.47606800  1
  Se  Se7  1  0.73392400  0.03868700  0.52393200  1
  Se  Se8  1  0.37332600  0.81678900  0.92032700  1
  Se  Se9  1  0.62667400  0.18321100  0.07967300  1
  Se  Se10  1  0.16265900  0.38973100  0.71903500  1
  Se  Se11  1  0.83734100  0.61026900  0.28096500  1
