# generated using pymatgen
data_RbBr3
_symmetry_space_group_name_H-M   'P 1'
_cell_length_a   8.23692816
_cell_length_b   8.23692816
_cell_length_c   8.23692816
_cell_angle_alpha   148.42036867
_cell_angle_beta   148.42036867
_cell_angle_gamma   45.26519835
_symmetry_Int_Tables_number   1
_chemical_formula_structural   RbBr3
_chemical_formula_sum   'Rb1 Br3'
_cell_volume   152.77066396
_cell_formula_units_Z   1
loop_
 _symmetry_equiv_pos_site_id
 _symmetry_equiv_pos_as_xyz
  1  'x, y, z'
loop_
 _atom_site_type_symbol
 _atom_site_label
 _atom_site_symmetry_multiplicity
 _atom_site_fract_x
 _atom_site_fract_y
 _atom_site_fract_z
 _atom_site_occupancy
  Rb  Rb0  1  0.00000000  0.00000000  0.00000000  1
  Br  Br1  1  0.75000000  0.25000000  0.50000000  1
  Br  Br2  1  0.25000000  0.75000000  0.50000000  1
  Br  Br3  1  0.50000000  0.50000000  0.00000000  1
