# generated using pymatgen
data_Sr3MgIrO6
_symmetry_space_group_name_H-M   'P 1'
_cell_length_a   6.75001370
_cell_length_b   6.75001370
_cell_length_c   6.75001374
_cell_angle_alpha   92.27787055
_cell_angle_beta   92.27787055
_cell_angle_gamma   92.27786163
_symmetry_Int_Tables_number   1
_chemical_formula_structural   Sr3MgIrO6
_chemical_formula_sum   'Sr6 Mg2 Ir2 O12'
_cell_volume   306.79976137
_cell_formula_units_Z   2
loop_
 _symmetry_equiv_pos_site_id
 _symmetry_equiv_pos_as_xyz
  1  'x, y, z'
loop_
 _atom_site_type_symbol
 _atom_site_label
 _atom_site_symmetry_multiplicity
 _atom_site_fract_x
 _atom_site_fract_y
 _atom_site_fract_z
 _atom_site_occupancy
  Sr  Sr0  1  0.61403700  0.25000000  0.88596300  1
  Sr  Sr1  1  0.88596300  0.61403700  0.25000000  1
  Sr  Sr2  1  0.75000000  0.11403700  0.38596300  1
  Sr  Sr3  1  0.38596300  0.75000000  0.11403700  1
  Sr  Sr4  1  0.11403700  0.38596300  0.75000000  1
  Sr  Sr5  1  0.25000000  0.88596300  0.61403700  1
  Mg  Mg6  1  0.25000000  0.25000000  0.25000000  1
  Mg  Mg7  1  0.75000000  0.75000000  0.75000000  1
  Ir  Ir8  1  0.00000000  0.00000000  0.00000000  1
  Ir  Ir9  1  0.50000000  0.50000000  0.50000000  1
  O  O10  1  0.59561000  0.78700100  0.46339300  1
  O  O11  1  0.46339300  0.59561000  0.78700100  1
  O  O12  1  0.78700100  0.46339300  0.59561000  1
  O  O13  1  0.90439000  0.03660700  0.71299900  1
  O  O14  1  0.71299900  0.90439000  0.03660700  1
  O  O15  1  0.03660700  0.71299900  0.90439000  1
  O  O16  1  0.40439000  0.21299900  0.53660700  1
  O  O17  1  0.53660700  0.40439000  0.21299900  1
  O  O18  1  0.21299900  0.53660700  0.40439000  1
  O  O19  1  0.09561000  0.96339300  0.28700100  1
  O  O20  1  0.96339300  0.28700100  0.09561000  1
  O  O21  1  0.28700100  0.09561000  0.96339300  1
