# generated using pymatgen
data_Na2NbF6
_symmetry_space_group_name_H-M   'P 1'
_cell_length_a   5.12204800
_cell_length_b   5.12204800
_cell_length_c   10.46344000
_cell_angle_alpha   90.00000000
_cell_angle_beta   90.00000000
_cell_angle_gamma   90.00000000
_symmetry_Int_Tables_number   1
_chemical_formula_structural   Na2NbF6
_chemical_formula_sum   'Na4 Nb2 F12'
_cell_volume   274.51227966
_cell_formula_units_Z   2
loop_
 _symmetry_equiv_pos_site_id
 _symmetry_equiv_pos_as_xyz
  1  'x, y, z'
loop_
 _atom_site_type_symbol
 _atom_site_label
 _atom_site_symmetry_multiplicity
 _atom_site_fract_x
 _atom_site_fract_y
 _atom_site_fract_z
 _atom_site_occupancy
  Na  Na0  1  0.00000000  0.00000000  0.33242100  1
  Na  Na1  1  0.50000000  0.50000000  0.83242100  1
  Na  Na2  1  0.00000000  0.00000000  0.66757900  1
  Na  Na3  1  0.50000000  0.50000000  0.16757900  1
  Nb  Nb4  1  0.00000000  0.00000000  0.00000000  1
  Nb  Nb5  1  0.50000000  0.50000000  0.50000000  1
  F  F6  1  0.68553100  0.68553100  0.64718400  1
  F  F7  1  0.31446900  0.31446900  0.64718400  1
  F  F8  1  0.68553100  0.68553100  0.35281600  1
  F  F9  1  0.18553100  0.81446900  0.14718400  1
  F  F10  1  0.81446900  0.18553100  0.14718400  1
  F  F11  1  0.81446900  0.18553100  0.85281600  1
  F  F12  1  0.27256000  0.27256000  0.00000000  1
  F  F13  1  0.22744000  0.77256000  0.50000000  1
  F  F14  1  0.77256000  0.22744000  0.50000000  1
  F  F15  1  0.72744000  0.72744000  0.00000000  1
  F  F16  1  0.31446900  0.31446900  0.35281600  1
  F  F17  1  0.18553100  0.81446900  0.85281600  1
