# generated using pymatgen
data_Er2FeC4
_symmetry_space_group_name_H-M   'P 1'
_cell_length_a   6.53495055
_cell_length_b   6.53495055
_cell_length_c   6.53495055
_cell_angle_alpha   135.06813546
_cell_angle_beta   110.39284491
_cell_angle_gamma   86.76667837
_symmetry_Int_Tables_number   1
_chemical_formula_structural   Er2FeC4
_chemical_formula_sum   'Er4 Fe2 C8'
_cell_volume   176.95363103
_cell_formula_units_Z   2
loop_
 _symmetry_equiv_pos_site_id
 _symmetry_equiv_pos_as_xyz
  1  'x, y, z'
loop_
 _atom_site_type_symbol
 _atom_site_label
 _atom_site_symmetry_multiplicity
 _atom_site_fract_x
 _atom_site_fract_y
 _atom_site_fract_z
 _atom_site_occupancy
  Er  Er0  1  0.51094700  0.85539000  0.65555800  1
  Er  Er1  1  0.48905300  0.14461000  0.34444200  1
  Er  Er2  1  0.80016800  0.64461000  0.15555800  1
  Er  Er3  1  0.19983200  0.35539000  0.84444200  1
  Fe  Fe4  1  0.00000000  0.25000000  0.25000000  1
  Fe  Fe5  1  0.00000000  0.75000000  0.75000000  1
  C  C6  1  0.24421100  0.57805000  0.66616000  1
  C  C7  1  0.75578900  0.42195000  0.33384000  1
  C  C8  1  0.08811000  0.92195000  0.16616000  1
  C  C9  1  0.91189000  0.07805000  0.83384000  1
  C  C10  1  0.46808600  0.62938400  0.83870100  1
  C  C11  1  0.53191400  0.37061600  0.16129900  1
  C  C12  1  0.79068300  0.12938400  0.66129900  1
  C  C13  1  0.20931700  0.87061600  0.33870100  1
