# generated using pymatgen
data_Tb3FeB7
_symmetry_space_group_name_H-M   'P 1'
_cell_length_a   8.07178870
_cell_length_b   8.07178870
_cell_length_c   9.34775400
_cell_angle_alpha   90.00000000
_cell_angle_beta   90.00000000
_cell_angle_gamma   155.41530379
_symmetry_Int_Tables_number   1
_chemical_formula_structural   Tb3FeB7
_chemical_formula_sum   'Tb6 Fe2 B14'
_cell_volume   253.38433337
_cell_formula_units_Z   2
loop_
 _symmetry_equiv_pos_site_id
 _symmetry_equiv_pos_as_xyz
  1  'x, y, z'
loop_
 _atom_site_type_symbol
 _atom_site_label
 _atom_site_symmetry_multiplicity
 _atom_site_fract_x
 _atom_site_fract_y
 _atom_site_fract_z
 _atom_site_occupancy
  Tb  Tb0  1  0.89529900  0.10470100  0.06024400  1
  Tb  Tb1  1  0.10470100  0.89529900  0.56024400  1
  Tb  Tb2  1  0.10470100  0.89529900  0.93975600  1
  Tb  Tb3  1  0.89529900  0.10470100  0.43975600  1
  Tb  Tb4  1  0.24304000  0.75696000  0.25000000  1
  Tb  Tb5  1  0.75696000  0.24304000  0.75000000  1
  Fe  Fe6  1  0.05484400  0.94515600  0.25000000  1
  Fe  Fe7  1  0.94515600  0.05484400  0.75000000  1
  B  B8  1  0.46103500  0.53896500  0.25000000  1
  B  B9  1  0.53896500  0.46103500  0.75000000  1
  B  B10  1  0.72745300  0.27254700  0.03253000  1
  B  B11  1  0.27254700  0.72745300  0.53253000  1
  B  B12  1  0.27254700  0.72745300  0.96747000  1
  B  B13  1  0.72745300  0.27254700  0.46747000  1
  B  B14  1  0.62990000  0.37010000  0.34672200  1
  B  B15  1  0.37010000  0.62990000  0.84672200  1
  B  B16  1  0.37010000  0.62990000  0.65327800  1
  B  B17  1  0.62990000  0.37010000  0.15327800  1
  B  B18  1  0.52233800  0.47766200  0.40048600  1
  B  B19  1  0.47766200  0.52233800  0.90048600  1
  B  B20  1  0.47766200  0.52233800  0.59951400  1
  B  B21  1  0.52233800  0.47766200  0.09951400  1
