# generated using pymatgen
data_Ir3Se8
_symmetry_space_group_name_H-M   'P 1'
_cell_length_a   6.06125485
_cell_length_b   6.06125485
_cell_length_c   6.06125495
_cell_angle_alpha   90.48825354
_cell_angle_beta   90.48825354
_cell_angle_gamma   90.48825066
_symmetry_Int_Tables_number   1
_chemical_formula_structural   Ir3Se8
_chemical_formula_sum   'Ir3 Se8'
_cell_volume   222.65890097
_cell_formula_units_Z   1
loop_
 _symmetry_equiv_pos_site_id
 _symmetry_equiv_pos_as_xyz
  1  'x, y, z'
loop_
 _atom_site_type_symbol
 _atom_site_label
 _atom_site_symmetry_multiplicity
 _atom_site_fract_x
 _atom_site_fract_y
 _atom_site_fract_z
 _atom_site_occupancy
  Ir  Ir0  1  0.50000000  0.00000000  0.50000000  1
  Ir  Ir1  1  0.00000000  0.50000000  0.50000000  1
  Ir  Ir2  1  0.50000000  0.50000000  0.00000000  1
  Se  Se3  1  0.61780800  0.88398000  0.12133000  1
  Se  Se4  1  0.88398000  0.12133000  0.61780800  1
  Se  Se5  1  0.12133000  0.61780800  0.88398000  1
  Se  Se6  1  0.62523800  0.62523800  0.62523800  1
  Se  Se7  1  0.37476200  0.37476200  0.37476200  1
  Se  Se8  1  0.87867000  0.38219200  0.11602000  1
  Se  Se9  1  0.11602000  0.87867000  0.38219200  1
  Se  Se10  1  0.38219200  0.11602000  0.87867000  1
