# generated using pymatgen
data_NaAsSe2
_symmetry_space_group_name_H-M   'P 1'
_cell_length_a   6.06750400
_cell_length_b   11.80755800
_cell_length_c   12.13427797
_cell_angle_alpha   89.16973946
_cell_angle_beta   90.00000000
_cell_angle_gamma   90.00000000
_symmetry_Int_Tables_number   1
_chemical_formula_structural   NaAsSe2
_chemical_formula_sum   'Na8 As8 Se16'
_cell_volume   869.23759123
_cell_formula_units_Z   8
loop_
 _symmetry_equiv_pos_site_id
 _symmetry_equiv_pos_as_xyz
  1  'x, y, z'
loop_
 _atom_site_type_symbol
 _atom_site_label
 _atom_site_symmetry_multiplicity
 _atom_site_fract_x
 _atom_site_fract_y
 _atom_site_fract_z
 _atom_site_occupancy
  Na  Na0  1  0.00809900  0.76323100  0.24821600  1
  Na  Na1  1  0.99190100  0.76323100  0.74821600  1
  Na  Na2  1  0.49881300  0.52259100  0.73880300  1
  Na  Na3  1  0.50118700  0.52259100  0.23880300  1
  Na  Na4  1  0.52377100  0.02292300  0.76363100  1
  Na  Na5  1  0.47622900  0.02292300  0.26363100  1
  Na  Na6  1  0.47805500  0.26155200  0.50005100  1
  Na  Na7  1  0.52194500  0.26155200  0.00005100  1
  As  As8  1  0.45738100  0.75498700  0.96434600  1
  As  As9  1  0.54261900  0.75498700  0.46434600  1
  As  As10  1  0.08325500  0.99638000  0.99073600  1
  As  As11  1  0.91674500  0.99638000  0.49073600  1
  As  As12  1  0.07246600  0.25628300  0.77477100  1
  As  As13  1  0.92753400  0.25628300  0.27477100  1
  As  As14  1  0.02792200  0.49800200  0.95450500  1
  As  As15  1  0.97207800  0.49800200  0.45450500  1
  Se  Se16  1  0.00103200  0.50551300  0.25939700  1
  Se  Se17  1  0.99896800  0.50551300  0.75939700  1
  Se  Se18  1  0.42258200  0.53542200  0.98978300  1
  Se  Se19  1  0.57741800  0.53542200  0.48978300  1
  Se  Se20  1  0.48839200  0.77280900  0.77012300  1
  Se  Se21  1  0.51160800  0.77280900  0.27012300  1
  Se  Se22  1  0.02440900  0.03608100  0.79249900  1
  Se  Se23  1  0.97559100  0.03608100  0.29249900  1
  Se  Se24  1  0.02624300  0.28398000  0.97771600  1
  Se  Se25  1  0.97375700  0.28398000  0.47771600  1
  Se  Se26  1  0.45937800  0.27082100  0.75053200  1
  Se  Se27  1  0.54062200  0.27082100  0.25053200  1
  Se  Se28  1  0.05264100  0.78191300  0.99592100  1
  Se  Se29  1  0.94735900  0.78191300  0.49592100  1
  Se  Se30  1  0.52860400  0.00502300  0.51260100  1
  Se  Se31  1  0.47139600  0.00502300  0.01260100  1
