# generated using pymatgen
data_Dy(CuO2)2
_symmetry_space_group_name_H-M   'P 1'
_cell_length_a   6.28762373
_cell_length_b   6.28762373
_cell_length_c   6.28762373
_cell_angle_alpha   126.13157371
_cell_angle_beta   126.13157371
_cell_angle_gamma   79.67199794
_symmetry_Int_Tables_number   1
_chemical_formula_structural   Dy(CuO2)2
_chemical_formula_sum   'Dy2 Cu4 O8'
_cell_volume   156.65601276
_cell_formula_units_Z   2
loop_
 _symmetry_equiv_pos_site_id
 _symmetry_equiv_pos_as_xyz
  1  'x, y, z'
loop_
 _atom_site_type_symbol
 _atom_site_label
 _atom_site_symmetry_multiplicity
 _atom_site_fract_x
 _atom_site_fract_y
 _atom_site_fract_z
 _atom_site_occupancy
  Dy  Dy0  1  0.00000000  0.00000000  0.00000000  1
  Dy  Dy1  1  0.75000000  0.25000000  0.50000000  1
  Cu  Cu2  1  0.87500000  0.62500000  0.25000000  1
  Cu  Cu3  1  0.37500000  0.62500000  0.75000000  1
  Cu  Cu4  1  0.37500000  0.12500000  0.75000000  1
  Cu  Cu5  1  0.37500000  0.62500000  0.25000000  1
  O  O6  1  0.40502700  0.84481300  0.14482900  1
  O  O7  1  0.69998400  0.26019800  0.85517100  1
  O  O8  1  0.34497300  0.40518700  0.35517100  1
  O  O9  1  0.05001600  0.98980200  0.64482900  1
  O  O10  1  0.01019800  0.65502700  0.06021400  1
  O  O11  1  0.59481300  0.94998400  0.93978600  1
  O  O12  1  0.15518700  0.30001600  0.56021400  1
  O  O13  1  0.73980200  0.59497300  0.43978600  1
