# generated using pymatgen
data_TbGa2Pd
_symmetry_space_group_name_H-M   'P 1'
_cell_length_a   5.55978862
_cell_length_b   5.55978862
_cell_length_c   6.61636600
_cell_angle_alpha   90.00000000
_cell_angle_beta   90.00000000
_cell_angle_gamma   132.68686350
_symmetry_Int_Tables_number   1
_chemical_formula_structural   TbGa2Pd
_chemical_formula_sum   'Tb2 Ga4 Pd2'
_cell_volume   150.33663192
_cell_formula_units_Z   2
loop_
 _symmetry_equiv_pos_site_id
 _symmetry_equiv_pos_as_xyz
  1  'x, y, z'
loop_
 _atom_site_type_symbol
 _atom_site_label
 _atom_site_symmetry_multiplicity
 _atom_site_fract_x
 _atom_site_fract_y
 _atom_site_fract_z
 _atom_site_occupancy
  Tb  Tb0  1  0.08969400  0.91030600  0.75000000  1
  Tb  Tb1  1  0.91030600  0.08969400  0.25000000  1
  Ga  Ga2  1  0.37335300  0.62664700  0.55326000  1
  Ga  Ga3  1  0.62664700  0.37335300  0.05326000  1
  Ga  Ga4  1  0.62664700  0.37335300  0.44674000  1
  Ga  Ga5  1  0.37335300  0.62664700  0.94674000  1
  Pd  Pd6  1  0.80042700  0.19957300  0.75000000  1
  Pd  Pd7  1  0.19957300  0.80042700  0.25000000  1
