# generated using pymatgen
data_NbSnS2
_symmetry_space_group_name_H-M   'P 1'
_cell_length_a   3.35743028
_cell_length_b   3.35743028
_cell_length_c   17.58302900
_cell_angle_alpha   90.00000000
_cell_angle_beta   90.00000000
_cell_angle_gamma   120.00000561
_symmetry_Int_Tables_number   1
_chemical_formula_structural   NbSnS2
_chemical_formula_sum   'Nb2 Sn2 S4'
_cell_volume   171.64782573
_cell_formula_units_Z   2
loop_
 _symmetry_equiv_pos_site_id
 _symmetry_equiv_pos_as_xyz
  1  'x, y, z'
loop_
 _atom_site_type_symbol
 _atom_site_label
 _atom_site_symmetry_multiplicity
 _atom_site_fract_x
 _atom_site_fract_y
 _atom_site_fract_z
 _atom_site_occupancy
  Nb  Nb0  1  0.66666700  0.33333300  0.75000000  1
  Nb  Nb1  1  0.33333300  0.66666700  0.25000000  1
  Sn  Sn2  1  0.00000000  0.00000000  0.00000000  1
  Sn  Sn3  1  0.00000000  0.00000000  0.50000000  1
  S  S4  1  0.00000000  0.00000000  0.33892600  1
  S  S5  1  0.00000000  0.00000000  0.83892600  1
  S  S6  1  0.00000000  0.00000000  0.16107400  1
  S  S7  1  0.00000000  0.00000000  0.66107400  1
