# generated using pymatgen
data_Dy5Ni2Sb
_symmetry_space_group_name_H-M   'P 1'
_cell_length_a   8.59493958
_cell_length_b   8.59493958
_cell_length_c   8.59493958
_cell_angle_alpha   127.38733050
_cell_angle_beta   127.38733050
_cell_angle_gamma   77.61965217
_symmetry_Int_Tables_number   1
_chemical_formula_structural   Dy5Ni2Sb
_chemical_formula_sum   'Dy10 Ni4 Sb2'
_cell_volume   388.68315579
_cell_formula_units_Z   2
loop_
 _symmetry_equiv_pos_site_id
 _symmetry_equiv_pos_as_xyz
  1  'x, y, z'
loop_
 _atom_site_type_symbol
 _atom_site_label
 _atom_site_symmetry_multiplicity
 _atom_site_fract_x
 _atom_site_fract_y
 _atom_site_fract_z
 _atom_site_occupancy
  Dy  Dy0  1  0.51950800  0.70634200  0.50000000  1
  Dy  Dy1  1  0.01950800  0.51950800  0.81316600  1
  Dy  Dy2  1  0.70634200  0.20634200  0.18683400  1
  Dy  Dy3  1  0.98049200  0.48049200  0.18683400  1
  Dy  Dy4  1  0.20634200  0.01950800  0.50000000  1
  Dy  Dy5  1  0.48049200  0.29365800  0.50000000  1
  Dy  Dy6  1  0.79365800  0.98049200  0.50000000  1
  Dy  Dy7  1  0.29365800  0.79365800  0.81316600  1
  Dy  Dy8  1  0.00000000  0.00000000  0.00000000  1
  Dy  Dy9  1  0.50000000  0.50000000  0.00000000  1
  Ni  Ni10  1  0.36856500  0.86856500  0.23713100  1
  Ni  Ni11  1  0.86856500  0.63143400  0.50000000  1
  Ni  Ni12  1  0.63143400  0.13143400  0.76286900  1
  Ni  Ni13  1  0.13143400  0.36856500  0.50000000  1
  Sb  Sb14  1  0.75000000  0.75000000  0.00000000  1
  Sb  Sb15  1  0.25000000  0.25000000  0.00000000  1
