# generated using pymatgen
data_CsReF6
_symmetry_space_group_name_H-M   'P 1'
_cell_length_a   5.41290791
_cell_length_b   5.41290791
_cell_length_c   5.41290758
_cell_angle_alpha   96.21161198
_cell_angle_beta   96.21161198
_cell_angle_gamma   96.21160739
_symmetry_Int_Tables_number   1
_chemical_formula_structural   CsReF6
_chemical_formula_sum   'Cs1 Re1 F6'
_cell_volume   155.58119992
_cell_formula_units_Z   1
loop_
 _symmetry_equiv_pos_site_id
 _symmetry_equiv_pos_as_xyz
  1  'x, y, z'
loop_
 _atom_site_type_symbol
 _atom_site_label
 _atom_site_symmetry_multiplicity
 _atom_site_fract_x
 _atom_site_fract_y
 _atom_site_fract_z
 _atom_site_occupancy
  Cs  Cs0  1  0.50000000  0.50000000  0.50000000  1
  Re  Re1  1  0.00000000  0.00000000  0.00000000  1
  F  F2  1  0.19456100  0.91890200  0.29206100  1
  F  F3  1  0.91890200  0.29206100  0.19456100  1
  F  F4  1  0.70793900  0.80543900  0.08109800  1
  F  F5  1  0.08109800  0.70793900  0.80543900  1
  F  F6  1  0.80543900  0.08109800  0.70793900  1
  F  F7  1  0.29206100  0.19456100  0.91890200  1
