# generated using pymatgen
data_K3NpO2F5
_symmetry_space_group_name_H-M   'P 1'
_cell_length_a   11.29458938
_cell_length_b   11.29458938
_cell_length_c   11.29458938
_cell_angle_alpha   131.46932820
_cell_angle_beta   131.46932820
_cell_angle_gamma   71.06846777
_symmetry_Int_Tables_number   1
_chemical_formula_structural   K3NpO2F5
_chemical_formula_sum   'K12 Np4 O8 F20'
_cell_volume   792.09514628
_cell_formula_units_Z   4
loop_
 _symmetry_equiv_pos_site_id
 _symmetry_equiv_pos_as_xyz
  1  'x, y, z'
loop_
 _atom_site_type_symbol
 _atom_site_label
 _atom_site_symmetry_multiplicity
 _atom_site_fract_x
 _atom_site_fract_y
 _atom_site_fract_z
 _atom_site_occupancy
  K  K0  1  0.67634800  0.15189400  0.05479200  1
  K  K1  1  0.37155600  0.92634800  0.02445300  1
  K  K2  1  0.90189400  0.34710300  0.97554700  1
  K  K3  1  0.09710300  0.62155600  0.94520800  1
  K  K4  1  0.07365200  0.09810600  0.44520800  1
  K  K5  1  0.37844400  0.32365200  0.47554700  1
  K  K6  1  0.84810600  0.90289700  0.52445300  1
  K  K7  1  0.65289700  0.62844400  0.55479200  1
  K  K8  1  0.50000000  0.50000000  0.00000000  1
  K  K9  1  0.25000000  0.75000000  0.50000000  1
  K  K10  1  0.00000000  0.00000000  0.00000000  1
  K  K11  1  0.75000000  0.25000000  0.50000000  1
  Np  Np12  1  0.02125500  0.52125500  0.50000000  1
  Np  Np13  1  0.27125500  0.27125500  0.00000000  1
  Np  Np14  1  0.72874500  0.72874500  0.00000000  1
  Np  Np15  1  0.47874500  0.97874500  0.50000000  1
  O  O16  1  0.23081900  0.46453600  0.15197600  1
  O  O17  1  0.82884300  0.48081900  0.26628300  1
  O  O18  1  0.21453600  0.56256000  0.73371700  1
  O  O19  1  0.31256000  0.07884300  0.84802400  1
  O  O20  1  0.51918100  0.78546400  0.34802400  1
  O  O21  1  0.92115700  0.76918100  0.23371700  1
  O  O22  1  0.53546400  0.68744000  0.76628300  1
  O  O23  1  0.43744000  0.17115700  0.65197600  1
  F  F24  1  0.74864900  0.06749300  0.77581900  1
  F  F25  1  0.72283000  0.99864900  0.18115500  1
  F  F26  1  0.81749300  0.54167500  0.81884500  1
  F  F27  1  0.29167500  0.97283000  0.22418100  1
  F  F28  1  0.00135100  0.18250700  0.72418100  1
  F  F29  1  0.02717000  0.25135100  0.31884500  1
  F  F30  1  0.93250700  0.70832500  0.68115500  1
  F  F31  1  0.45832500  0.27717000  0.27581900  1
  F  F32  1  0.60464200  0.10464200  0.50000000  1
  F  F33  1  0.85464200  0.85464200  0.00000000  1
  F  F34  1  0.14535800  0.14535800  0.00000000  1
  F  F35  1  0.89535800  0.39535800  0.50000000  1
  F  F36  1  0.51257900  0.38873900  0.16289500  1
  F  F37  1  0.09968300  0.76257900  0.62384000  1
  F  F38  1  0.13873900  0.47584400  0.37616000  1
  F  F39  1  0.22584400  0.34968300  0.83710500  1
  F  F40  1  0.23742100  0.86126100  0.33710500  1
  F  F41  1  0.65031700  0.48742100  0.87616000  1
  F  F42  1  0.61126100  0.77415600  0.12384000  1
  F  F43  1  0.52415600  0.90031700  0.66289500  1
