# generated using pymatgen
data_LaMnN3
_symmetry_space_group_name_H-M   'P 1'
_cell_length_a   5.81590352
_cell_length_b   5.81590352
_cell_length_c   7.09218732
_cell_angle_alpha   62.65002700
_cell_angle_beta   62.65002700
_cell_angle_gamma   40.94088945
_symmetry_Int_Tables_number   1
_chemical_formula_structural   LaMnN3
_chemical_formula_sum   'La2 Mn2 N6'
_cell_volume   136.99670115
_cell_formula_units_Z   2
loop_
 _symmetry_equiv_pos_site_id
 _symmetry_equiv_pos_as_xyz
  1  'x, y, z'
loop_
 _atom_site_type_symbol
 _atom_site_label
 _atom_site_symmetry_multiplicity
 _atom_site_fract_x
 _atom_site_fract_y
 _atom_site_fract_z
 _atom_site_occupancy
  La  La0  1  0.28014300  0.28014300  0.23776400  1
  La  La1  1  0.71985700  0.71985700  0.76223600  1
  Mn  Mn2  1  0.54129300  0.54129300  0.31292000  1
  Mn  Mn3  1  0.45870700  0.45870700  0.68708000  1
  N  N4  1  0.92749800  0.24100200  0.12166100  1
  N  N5  1  0.64168400  0.64168400  0.46515100  1
  N  N6  1  0.07250200  0.75899800  0.87833900  1
  N  N7  1  0.75899800  0.07250200  0.87833900  1
  N  N8  1  0.35831600  0.35831600  0.53484900  1
  N  N9  1  0.24100200  0.92749800  0.12166100  1
