# generated using pymatgen
data_Rb(ThSe3)2
_symmetry_space_group_name_H-M   'P 1'
_cell_length_a   12.06449074
_cell_length_b   12.06449074
_cell_length_c   12.06449074
_cell_angle_alpha   159.64022519
_cell_angle_beta   153.21822367
_cell_angle_gamma   33.87499073
_symmetry_Int_Tables_number   1
_chemical_formula_structural   Rb(ThSe3)2
_chemical_formula_sum   'Rb1 Th2 Se6'
_cell_volume   275.03417122
_cell_formula_units_Z   1
loop_
 _symmetry_equiv_pos_site_id
 _symmetry_equiv_pos_as_xyz
  1  'x, y, z'
loop_
 _atom_site_type_symbol
 _atom_site_label
 _atom_site_symmetry_multiplicity
 _atom_site_fract_x
 _atom_site_fract_y
 _atom_site_fract_z
 _atom_site_occupancy
  Rb  Rb0  1  0.00000000  0.00000000  0.00000000  1
  Th  Th1  1  0.31974500  0.81974500  0.50000000  1
  Th  Th2  1  0.68025500  0.18025500  0.50000000  1
  Se  Se3  1  0.14481500  0.39079200  0.75402300  1
  Se  Se4  1  0.22896400  0.22896400  0.00000000  1
  Se  Se5  1  0.36323000  0.60920800  0.75402300  1
  Se  Se6  1  0.63677000  0.39079200  0.24597700  1
  Se  Se7  1  0.85518500  0.60920800  0.24597700  1
  Se  Se8  1  0.77103600  0.77103600  0.00000000  1
