# generated using pymatgen
data_RuF4
_symmetry_space_group_name_H-M   'P 1'
_cell_length_a   5.05548900
_cell_length_b   5.44646800
_cell_length_c   5.51845328
_cell_angle_alpha   62.90809723
_cell_angle_beta   90.00000000
_cell_angle_gamma   90.00000000
_symmetry_Int_Tables_number   1
_chemical_formula_structural   RuF4
_chemical_formula_sum   'Ru2 F8'
_cell_volume   135.27599455
_cell_formula_units_Z   2
loop_
 _symmetry_equiv_pos_site_id
 _symmetry_equiv_pos_as_xyz
  1  'x, y, z'
loop_
 _atom_site_type_symbol
 _atom_site_label
 _atom_site_symmetry_multiplicity
 _atom_site_fract_x
 _atom_site_fract_y
 _atom_site_fract_z
 _atom_site_occupancy
  Ru  Ru0  1  0.50000000  0.00000000  0.00000000  1
  Ru  Ru1  1  0.00000000  0.00000000  0.50000000  1
  F  F2  1  0.83189700  0.11957800  0.12722600  1
  F  F3  1  0.85358100  0.65234900  0.61344200  1
  F  F4  1  0.35358100  0.34765100  0.88655800  1
  F  F5  1  0.33189700  0.88042200  0.37277400  1
  F  F6  1  0.66810300  0.11957800  0.62722600  1
  F  F7  1  0.64641900  0.65234900  0.11344200  1
  F  F8  1  0.14641900  0.34765100  0.38655800  1
  F  F9  1  0.16810300  0.88042200  0.87277400  1
