# generated using pymatgen
data_RbTcO4
_symmetry_space_group_name_H-M   'P 1'
_cell_length_a   8.00912456
_cell_length_b   8.00912456
_cell_length_c   8.00912456
_cell_angle_alpha   136.72214652
_cell_angle_beta   136.72214652
_cell_angle_gamma   62.86583937
_symmetry_Int_Tables_number   1
_chemical_formula_structural   RbTcO4
_chemical_formula_sum   'Rb2 Tc2 O8'
_cell_volume   238.43535904
_cell_formula_units_Z   2
loop_
 _symmetry_equiv_pos_site_id
 _symmetry_equiv_pos_as_xyz
  1  'x, y, z'
loop_
 _atom_site_type_symbol
 _atom_site_label
 _atom_site_symmetry_multiplicity
 _atom_site_fract_x
 _atom_site_fract_y
 _atom_site_fract_z
 _atom_site_occupancy
  Rb  Rb0  1  0.75000000  0.25000000  0.50000000  1
  Rb  Rb1  1  0.00000000  0.00000000  0.00000000  1
  Tc  Tc2  1  0.50000000  0.50000000  0.00000000  1
  Tc  Tc3  1  0.25000000  0.75000000  0.50000000  1
  O  O4  1  0.68126600  0.79013500  0.32556500  1
  O  O5  1  0.10570100  0.93126600  0.39113200  1
  O  O6  1  0.20986500  0.53543100  0.89113200  1
  O  O7  1  0.46456900  0.35570100  0.67443500  1
  O  O8  1  0.28543100  0.89429900  0.82556500  1
  O  O9  1  0.54013500  0.71456900  0.60886800  1
  O  O10  1  0.64429900  0.31873400  0.10886800  1
  O  O11  1  0.06873400  0.45986500  0.17443500  1
