# generated using pymatgen
data_PrSi
_symmetry_space_group_name_H-M   'P 1'
_cell_length_a   3.96832000
_cell_length_b   5.97202200
_cell_length_c   8.33957200
_cell_angle_alpha   90.00000000
_cell_angle_beta   90.00000000
_cell_angle_gamma   90.00000000
_symmetry_Int_Tables_number   1
_chemical_formula_structural   PrSi
_chemical_formula_sum   'Pr4 Si4'
_cell_volume   197.63863569
_cell_formula_units_Z   4
loop_
 _symmetry_equiv_pos_site_id
 _symmetry_equiv_pos_as_xyz
  1  'x, y, z'
loop_
 _atom_site_type_symbol
 _atom_site_label
 _atom_site_symmetry_multiplicity
 _atom_site_fract_x
 _atom_site_fract_y
 _atom_site_fract_z
 _atom_site_occupancy
  Pr  Pr0  1  0.25000000  0.38622900  0.67973900  1
  Pr  Pr1  1  0.75000000  0.61377100  0.32026100  1
  Pr  Pr2  1  0.75000000  0.88622900  0.82026100  1
  Pr  Pr3  1  0.25000000  0.11377100  0.17973900  1
  Si  Si4  1  0.25000000  0.87957900  0.53476300  1
  Si  Si5  1  0.75000000  0.12042100  0.46523700  1
  Si  Si6  1  0.75000000  0.37957900  0.96523700  1
  Si  Si7  1  0.25000000  0.62042100  0.03476300  1
