# generated using pymatgen
data_Ti2Ag
_symmetry_space_group_name_H-M   'P 1'
_cell_length_a   6.42633770
_cell_length_b   6.42633770
_cell_length_c   6.42633770
_cell_angle_alpha   153.63411694
_cell_angle_beta   153.63411694
_cell_angle_gamma   37.63162736
_symmetry_Int_Tables_number   1
_chemical_formula_structural   Ti2Ag
_chemical_formula_sum   'Ti2 Ag1'
_cell_volume   52.26379543
_cell_formula_units_Z   1
loop_
 _symmetry_equiv_pos_site_id
 _symmetry_equiv_pos_as_xyz
  1  'x, y, z'
loop_
 _atom_site_type_symbol
 _atom_site_label
 _atom_site_symmetry_multiplicity
 _atom_site_fract_x
 _atom_site_fract_y
 _atom_site_fract_z
 _atom_site_occupancy
  Ti  Ti0  1  0.32741600  0.32741600  0.00000000  1
  Ti  Ti1  1  0.67258400  0.67258400  0.00000000  1
  Ag  Ag2  1  0.00000000  0.00000000  0.00000000  1
