# generated using pymatgen
data_BaPIr
_symmetry_space_group_name_H-M   'P 1'
_cell_length_a   6.55092200
_cell_length_b   6.55092200
_cell_length_c   6.55092200
_cell_angle_alpha   90.00000000
_cell_angle_beta   90.00000000
_cell_angle_gamma   90.00000000
_symmetry_Int_Tables_number   1
_chemical_formula_structural   BaPIr
_chemical_formula_sum   'Ba4 P4 Ir4'
_cell_volume   281.13006002
_cell_formula_units_Z   4
loop_
 _symmetry_equiv_pos_site_id
 _symmetry_equiv_pos_as_xyz
  1  'x, y, z'
loop_
 _atom_site_type_symbol
 _atom_site_label
 _atom_site_symmetry_multiplicity
 _atom_site_fract_x
 _atom_site_fract_y
 _atom_site_fract_z
 _atom_site_occupancy
  Ba  Ba0  1  0.62628800  0.37371200  0.87371200  1
  Ba  Ba1  1  0.37371200  0.87371200  0.62628800  1
  Ba  Ba2  1  0.12628800  0.12628800  0.12628800  1
  Ba  Ba3  1  0.87371200  0.62628800  0.37371200  1
  P  P4  1  0.15416200  0.34583800  0.65416200  1
  P  P5  1  0.65416200  0.15416200  0.34583800  1
  P  P6  1  0.34583800  0.65416200  0.15416200  1
  P  P7  1  0.84583800  0.84583800  0.84583800  1
  Ir  Ir8  1  0.59669900  0.90330100  0.09669900  1
  Ir  Ir9  1  0.09669900  0.59669900  0.90330100  1
  Ir  Ir10  1  0.40330100  0.40330100  0.40330100  1
  Ir  Ir11  1  0.90330100  0.09669900  0.59669900  1
