# generated using pymatgen
data_Mn2S3
_symmetry_space_group_name_H-M   'P 1'
_cell_length_a   6.26300210
_cell_length_b   6.26300210
_cell_length_c   6.26300221
_cell_angle_alpha   54.50392377
_cell_angle_beta   54.50392377
_cell_angle_gamma   54.50392493
_symmetry_Int_Tables_number   1
_chemical_formula_structural   Mn2S3
_chemical_formula_sum   'Mn4 S6'
_cell_volume   151.45520178
_cell_formula_units_Z   2
loop_
 _symmetry_equiv_pos_site_id
 _symmetry_equiv_pos_as_xyz
  1  'x, y, z'
loop_
 _atom_site_type_symbol
 _atom_site_label
 _atom_site_symmetry_multiplicity
 _atom_site_fract_x
 _atom_site_fract_y
 _atom_site_fract_z
 _atom_site_occupancy
  Mn  Mn0  1  0.84202000  0.84202000  0.84202000  1
  Mn  Mn1  1  0.65798000  0.65798000  0.65798000  1
  Mn  Mn2  1  0.34202000  0.34202000  0.34202000  1
  Mn  Mn3  1  0.15798000  0.15798000  0.15798000  1
  S  S4  1  0.25000000  0.57007400  0.92992600  1
  S  S5  1  0.57007400  0.92992600  0.25000000  1
  S  S6  1  0.92992600  0.25000000  0.57007400  1
  S  S7  1  0.07007400  0.75000000  0.42992600  1
  S  S8  1  0.42992600  0.07007400  0.75000000  1
  S  S9  1  0.75000000  0.42992600  0.07007400  1
