# generated using pymatgen
data_HoBr3
_symmetry_space_group_name_H-M   'P 1'
_cell_length_a   10.15962719
_cell_length_b   10.15962719
_cell_length_c   3.74022000
_cell_angle_alpha   90.00000000
_cell_angle_beta   90.00000000
_cell_angle_gamma   119.99999469
_symmetry_Int_Tables_number   1
_chemical_formula_structural   HoBr3
_chemical_formula_sum   'Ho2 Br6'
_cell_volume   334.33615691
_cell_formula_units_Z   2
loop_
 _symmetry_equiv_pos_site_id
 _symmetry_equiv_pos_as_xyz
  1  'x, y, z'
loop_
 _atom_site_type_symbol
 _atom_site_label
 _atom_site_symmetry_multiplicity
 _atom_site_fract_x
 _atom_site_fract_y
 _atom_site_fract_z
 _atom_site_occupancy
  Ho  Ho0  1  0.33333300  0.66666700  0.75000000  1
  Ho  Ho1  1  0.66666700  0.33333300  0.25000000  1
  Br  Br2  1  0.21256700  0.42513400  0.25000000  1
  Br  Br3  1  0.57486600  0.78743300  0.25000000  1
  Br  Br4  1  0.21256700  0.78743300  0.25000000  1
  Br  Br5  1  0.78743300  0.57486600  0.75000000  1
  Br  Br6  1  0.42513400  0.21256700  0.75000000  1
  Br  Br7  1  0.78743300  0.21256700  0.75000000  1
