# generated using pymatgen
data_RbTi5Se8
_symmetry_space_group_name_H-M   'P 1'
_cell_length_a   9.68450558
_cell_length_b   9.68450558
_cell_length_c   9.23866926
_cell_angle_alpha   75.53687353
_cell_angle_beta   75.53687353
_cell_angle_gamma   21.71194766
_symmetry_Int_Tables_number   1
_chemical_formula_structural   RbTi5Se8
_chemical_formula_sum   'Rb1 Ti5 Se8'
_cell_volume   310.01166516
_cell_formula_units_Z   1
loop_
 _symmetry_equiv_pos_site_id
 _symmetry_equiv_pos_as_xyz
  1  'x, y, z'
loop_
 _atom_site_type_symbol
 _atom_site_label
 _atom_site_symmetry_multiplicity
 _atom_site_fract_x
 _atom_site_fract_y
 _atom_site_fract_z
 _atom_site_occupancy
  Rb  Rb0  1  0.50000000  0.50000000  0.50000000  1
  Ti  Ti1  1  0.00000000  0.00000000  0.00000000  1
  Ti  Ti2  1  0.34250900  0.34250900  0.00208500  1
  Ti  Ti3  1  0.29211500  0.29211500  0.34709000  1
  Ti  Ti4  1  0.70788500  0.70788500  0.65291000  1
  Ti  Ti5  1  0.65749100  0.65749100  0.99791500  1
  Se  Se6  1  0.42602100  0.42602100  0.17392900  1
  Se  Se7  1  0.91146200  0.91146200  0.82653000  1
  Se  Se8  1  0.83816500  0.83816500  0.49791500  1
  Se  Se9  1  0.75586300  0.75586300  0.16732400  1
  Se  Se10  1  0.24413700  0.24413700  0.83267600  1
  Se  Se11  1  0.16183500  0.16183500  0.50208500  1
  Se  Se12  1  0.08853800  0.08853800  0.17347000  1
  Se  Se13  1  0.57397900  0.57397900  0.82607100  1
