# generated using pymatgen
data_MgPd5
_symmetry_space_group_name_H-M   'P 1'
_cell_length_a   4.86606396
_cell_length_b   4.86606396
_cell_length_c   4.58296200
_cell_angle_alpha   90.00000000
_cell_angle_beta   90.00000000
_cell_angle_gamma   119.99999952
_symmetry_Int_Tables_number   1
_chemical_formula_structural   MgPd5
_chemical_formula_sum   'Mg1 Pd5'
_cell_volume   93.97936733
_cell_formula_units_Z   1
loop_
 _symmetry_equiv_pos_site_id
 _symmetry_equiv_pos_as_xyz
  1  'x, y, z'
loop_
 _atom_site_type_symbol
 _atom_site_label
 _atom_site_symmetry_multiplicity
 _atom_site_fract_x
 _atom_site_fract_y
 _atom_site_fract_z
 _atom_site_occupancy
  Mg  Mg0  1  0.00000000  0.00000000  0.50000000  1
  Pd  Pd1  1  0.66457200  0.00000000  0.00000000  1
  Pd  Pd2  1  0.66666700  0.33333300  0.50000000  1
  Pd  Pd3  1  0.33542800  0.33542800  0.00000000  1
  Pd  Pd4  1  0.00000000  0.66457200  0.00000000  1
  Pd  Pd5  1  0.33333300  0.66666700  0.50000000  1
