# generated using pymatgen
data_Y2Al3Si2
_symmetry_space_group_name_H-M   'P 1'
_cell_length_a   5.49538474
_cell_length_b   5.49538474
_cell_length_c   6.64007393
_cell_angle_alpha   79.70261040
_cell_angle_beta   79.70261040
_cell_angle_gamma   43.12570695
_symmetry_Int_Tables_number   1
_chemical_formula_structural   Y2Al3Si2
_chemical_formula_sum   'Y2 Al3 Si2'
_cell_volume   134.52335686
_cell_formula_units_Z   1
loop_
 _symmetry_equiv_pos_site_id
 _symmetry_equiv_pos_as_xyz
  1  'x, y, z'
loop_
 _atom_site_type_symbol
 _atom_site_label
 _atom_site_symmetry_multiplicity
 _atom_site_fract_x
 _atom_site_fract_y
 _atom_site_fract_z
 _atom_site_occupancy
  Y  Y0  1  0.62009000  0.62009000  0.67756400  1
  Y  Y1  1  0.37991000  0.37991000  0.32243600  1
  Al  Al2  1  0.30558400  0.30558400  0.86660700  1
  Al  Al3  1  0.00000000  0.00000000  0.00000000  1
  Al  Al4  1  0.69441600  0.69441600  0.13339300  1
  Si  Si5  1  0.09269000  0.09269000  0.35944600  1
  Si  Si6  1  0.90731000  0.90731000  0.64055400  1
