# generated using pymatgen
data_Ca(ZnP)2
_symmetry_space_group_name_H-M   'P 1'
_cell_length_a   4.04793565
_cell_length_b   4.04793565
_cell_length_c   6.84461200
_cell_angle_alpha   90.00000000
_cell_angle_beta   90.00000000
_cell_angle_gamma   119.99999421
_symmetry_Int_Tables_number   1
_chemical_formula_structural   Ca(ZnP)2
_chemical_formula_sum   'Ca1 Zn2 P2'
_cell_volume   97.12850191
_cell_formula_units_Z   1
loop_
 _symmetry_equiv_pos_site_id
 _symmetry_equiv_pos_as_xyz
  1  'x, y, z'
loop_
 _atom_site_type_symbol
 _atom_site_label
 _atom_site_symmetry_multiplicity
 _atom_site_fract_x
 _atom_site_fract_y
 _atom_site_fract_z
 _atom_site_occupancy
  Ca  Ca0  1  0.00000000  0.00000000  0.00000000  1
  Zn  Zn1  1  0.33333300  0.66666700  0.63328900  1
  Zn  Zn2  1  0.66666700  0.33333300  0.36671100  1
  P  P3  1  0.66666700  0.33333300  0.73810800  1
  P  P4  1  0.33333300  0.66666700  0.26189200  1
