# generated using pymatgen
data_BaCu(SeO3)2
_symmetry_space_group_name_H-M   'P 1'
_cell_length_a   4.94140992
_cell_length_b   4.94140992
_cell_length_c   16.01537052
_cell_angle_alpha   88.91828658
_cell_angle_beta   88.91828658
_cell_angle_gamma   64.24919395
_symmetry_Int_Tables_number   1
_chemical_formula_structural   BaCu(SeO3)2
_chemical_formula_sum   'Ba2 Cu2 Se4 O12'
_cell_volume   352.13337938
_cell_formula_units_Z   2
loop_
 _symmetry_equiv_pos_site_id
 _symmetry_equiv_pos_as_xyz
  1  'x, y, z'
loop_
 _atom_site_type_symbol
 _atom_site_label
 _atom_site_symmetry_multiplicity
 _atom_site_fract_x
 _atom_site_fract_y
 _atom_site_fract_z
 _atom_site_occupancy
  Ba  Ba0  1  0.03589900  0.96410100  0.75000000  1
  Ba  Ba1  1  0.96410100  0.03589900  0.25000000  1
  Cu  Cu2  1  0.00000000  0.00000000  0.00000000  1
  Cu  Cu3  1  0.00000000  0.00000000  0.50000000  1
  Se  Se4  1  0.63472500  0.63651700  0.90908000  1
  Se  Se5  1  0.63651700  0.63472500  0.40908000  1
  Se  Se6  1  0.36348300  0.36527500  0.59092000  1
  Se  Se7  1  0.36527500  0.36348300  0.09092000  1
  O  O8  1  0.82525900  0.24488300  0.90166900  1
  O  O9  1  0.75511700  0.17474100  0.59833100  1
  O  O10  1  0.17474100  0.75511700  0.09833100  1
  O  O11  1  0.24488300  0.82525900  0.40166900  1
  O  O12  1  0.26163700  0.68612100  0.92162300  1
  O  O13  1  0.31387900  0.73836300  0.57837700  1
  O  O14  1  0.73836300  0.31387900  0.07837700  1
  O  O15  1  0.68612100  0.26163700  0.42162300  1
  O  O16  1  0.72731200  0.63846200  0.30604700  1
  O  O17  1  0.36153800  0.27268800  0.19395300  1
  O  O18  1  0.27268800  0.36153800  0.69395300  1
  O  O19  1  0.63846200  0.72731200  0.80604700  1
