# generated using pymatgen
data_Pr2Co12P7
_symmetry_space_group_name_H-M   'P 1'
_cell_length_a   9.09085716
_cell_length_b   9.09085716
_cell_length_c   3.63851300
_cell_angle_alpha   90.00000000
_cell_angle_beta   90.00000000
_cell_angle_gamma   119.99999389
_symmetry_Int_Tables_number   1
_chemical_formula_structural   Pr2Co12P7
_chemical_formula_sum   'Pr2 Co12 P7'
_cell_volume   260.41395736
_cell_formula_units_Z   1
loop_
 _symmetry_equiv_pos_site_id
 _symmetry_equiv_pos_as_xyz
  1  'x, y, z'
loop_
 _atom_site_type_symbol
 _atom_site_label
 _atom_site_symmetry_multiplicity
 _atom_site_fract_x
 _atom_site_fract_y
 _atom_site_fract_z
 _atom_site_occupancy
  Pr  Pr0  1  0.33333300  0.66666700  0.00000000  1
  Pr  Pr1  1  0.66666700  0.33333300  0.50000000  1
  Co  Co2  1  0.43125000  0.05756800  0.00000000  1
  Co  Co3  1  0.94243200  0.37368100  0.00000000  1
  Co  Co4  1  0.62631900  0.56875000  0.00000000  1
  Co  Co5  1  0.38000600  0.42990300  0.50000000  1
  Co  Co6  1  0.57009700  0.95010300  0.50000000  1
  Co  Co7  1  0.04989700  0.61999400  0.50000000  1
  Co  Co8  1  0.14938800  0.26936700  0.00000000  1
  Co  Co9  1  0.73063300  0.88002100  0.00000000  1
  Co  Co10  1  0.11997900  0.85061200  0.00000000  1
  Co  Co11  1  0.22742300  0.10069500  0.50000000  1
  Co  Co12  1  0.89930500  0.12672900  0.50000000  1
  Co  Co13  1  0.87327100  0.77257700  0.50000000  1
  P  P14  1  0.10368200  0.39618700  0.50000000  1
  P  P15  1  0.60381300  0.70749600  0.50000000  1
  P  P16  1  0.29250400  0.89631800  0.50000000  1
  P  P17  1  0.00000000  0.00000000  0.00000000  1
  P  P18  1  0.40055100  0.29419800  0.00000000  1
  P  P19  1  0.70580200  0.10635300  0.00000000  1
  P  P20  1  0.89364700  0.59944900  0.00000000  1
