# generated using pymatgen
data_CaPS3
_symmetry_space_group_name_H-M   'P 1'
_cell_length_a   7.35601500
_cell_length_b   6.62464500
_cell_length_c   11.18173479
_cell_angle_alpha   55.94805826
_cell_angle_beta   90.00000000
_cell_angle_gamma   90.00000000
_symmetry_Int_Tables_number   1
_chemical_formula_structural   CaPS3
_chemical_formula_sum   'Ca4 P4 S12'
_cell_volume   451.46365752
_cell_formula_units_Z   4
loop_
 _symmetry_equiv_pos_site_id
 _symmetry_equiv_pos_as_xyz
  1  'x, y, z'
loop_
 _atom_site_type_symbol
 _atom_site_label
 _atom_site_symmetry_multiplicity
 _atom_site_fract_x
 _atom_site_fract_y
 _atom_site_fract_z
 _atom_site_occupancy
  Ca  Ca0  1  0.61946900  0.71415400  0.24765400  1
  Ca  Ca1  1  0.11946900  0.28584600  0.25234600  1
  Ca  Ca2  1  0.38053100  0.28584600  0.75234600  1
  Ca  Ca3  1  0.88053100  0.71415400  0.74765400  1
  P  P4  1  0.60865600  0.36484200  0.06612200  1
  P  P5  1  0.10865600  0.63515800  0.43387800  1
  P  P6  1  0.39134400  0.63515800  0.93387800  1
  P  P7  1  0.89134400  0.36484200  0.56612200  1
  S  S8  1  0.69393900  0.57921300  0.56804800  1
  S  S9  1  0.19393900  0.42078700  0.93195200  1
  S  S10  1  0.30606100  0.42078700  0.43195200  1
  S  S11  1  0.80606100  0.57921300  0.06804800  1
  S  S12  1  0.00647200  0.11664000  0.75936800  1
  S  S13  1  0.50647200  0.88336000  0.74063200  1
  S  S14  1  0.99352800  0.88336000  0.24063200  1
  S  S15  1  0.49352800  0.11664000  0.25936800  1
  S  S16  1  0.80619200  0.22651000  0.45281800  1
  S  S17  1  0.30619200  0.77349000  0.04718200  1
  S  S18  1  0.19380800  0.77349000  0.54718200  1
  S  S19  1  0.69380800  0.22651000  0.95281800  1
