# generated using pymatgen
data_TmB4Ru
_symmetry_space_group_name_H-M   'P 1'
_cell_length_a   3.52997600
_cell_length_b   5.92315400
_cell_length_c   11.45350100
_cell_angle_alpha   90.00000000
_cell_angle_beta   90.00000000
_cell_angle_gamma   90.00000000
_symmetry_Int_Tables_number   1
_chemical_formula_structural   TmB4Ru
_chemical_formula_sum   'Tm4 B16 Ru4'
_cell_volume   239.47657324
_cell_formula_units_Z   4
loop_
 _symmetry_equiv_pos_site_id
 _symmetry_equiv_pos_as_xyz
  1  'x, y, z'
loop_
 _atom_site_type_symbol
 _atom_site_label
 _atom_site_symmetry_multiplicity
 _atom_site_fract_x
 _atom_site_fract_y
 _atom_site_fract_z
 _atom_site_occupancy
  Tm  Tm0  1  0.50000000  0.12926300  0.14978300  1
  Tm  Tm1  1  0.50000000  0.87073700  0.85021700  1
  Tm  Tm2  1  0.50000000  0.62926300  0.35021700  1
  Tm  Tm3  1  0.50000000  0.37073700  0.64978300  1
  B  B4  1  0.00000000  0.47651400  0.19247200  1
  B  B5  1  0.00000000  0.52348600  0.80752800  1
  B  B6  1  0.00000000  0.97651400  0.30752800  1
  B  B7  1  0.00000000  0.02348600  0.69247200  1
  B  B8  1  0.00000000  0.29065400  0.31405000  1
  B  B9  1  0.00000000  0.70934600  0.68595000  1
  B  B10  1  0.00000000  0.79065400  0.18595000  1
  B  B11  1  0.00000000  0.20934600  0.81405000  1
  B  B12  1  0.00000000  0.36481900  0.47002300  1
  B  B13  1  0.00000000  0.63518100  0.52997700  1
  B  B14  1  0.00000000  0.86481900  0.02997700  1
  B  B15  1  0.00000000  0.13518100  0.97002300  1
  B  B16  1  0.00000000  0.38737300  0.04720100  1
  B  B17  1  0.00000000  0.61262700  0.95279900  1
  B  B18  1  0.00000000  0.88737300  0.45279900  1
  B  B19  1  0.00000000  0.11262700  0.54720100  1
  Ru  Ru20  1  0.50000000  0.14129800  0.40699400  1
  Ru  Ru21  1  0.50000000  0.85870200  0.59300600  1
  Ru  Ru22  1  0.50000000  0.64129800  0.09300600  1
  Ru  Ru23  1  0.50000000  0.35870200  0.90699400  1
