# generated using pymatgen
data_YbB4Ru
_symmetry_space_group_name_H-M   'P 1'
_cell_length_a   3.53222300
_cell_length_b   5.94774800
_cell_length_c   11.52003900
_cell_angle_alpha   90.00000000
_cell_angle_beta   90.00000000
_cell_angle_gamma   90.00000000
_symmetry_Int_Tables_number   1
_chemical_formula_structural   YbB4Ru
_chemical_formula_sum   'Yb4 B16 Ru4'
_cell_volume   242.02187605
_cell_formula_units_Z   4
loop_
 _symmetry_equiv_pos_site_id
 _symmetry_equiv_pos_as_xyz
  1  'x, y, z'
loop_
 _atom_site_type_symbol
 _atom_site_label
 _atom_site_symmetry_multiplicity
 _atom_site_fract_x
 _atom_site_fract_y
 _atom_site_fract_z
 _atom_site_occupancy
  Yb  Yb0  1  0.50000000  0.62987500  0.15048700  1
  Yb  Yb1  1  0.50000000  0.37012500  0.84951300  1
  Yb  Yb2  1  0.50000000  0.12987500  0.34951300  1
  Yb  Yb3  1  0.50000000  0.87012500  0.65048700  1
  B  B4  1  0.00000000  0.97645000  0.19220100  1
  B  B5  1  0.00000000  0.02355000  0.80779900  1
  B  B6  1  0.00000000  0.47645000  0.30779900  1
  B  B7  1  0.00000000  0.52355000  0.69220100  1
  B  B8  1  0.00000000  0.78697400  0.31499700  1
  B  B9  1  0.00000000  0.21302600  0.68500300  1
  B  B10  1  0.00000000  0.28697400  0.18500300  1
  B  B11  1  0.00000000  0.71302600  0.81499700  1
  B  B12  1  0.00000000  0.86483700  0.46886400  1
  B  B13  1  0.00000000  0.13516300  0.53113600  1
  B  B14  1  0.00000000  0.36483700  0.03113600  1
  B  B15  1  0.00000000  0.63516300  0.96886400  1
  B  B16  1  0.00000000  0.88732100  0.04726000  1
  B  B17  1  0.00000000  0.11267900  0.95274000  1
  B  B18  1  0.00000000  0.38732100  0.45274000  1
  B  B19  1  0.00000000  0.61267900  0.54726000  1
  Ru  Ru20  1  0.50000000  0.63548900  0.41249300  1
  Ru  Ru21  1  0.50000000  0.36451100  0.58750700  1
  Ru  Ru22  1  0.50000000  0.13548900  0.08750700  1
  Ru  Ru23  1  0.50000000  0.86451100  0.91249300  1
