# generated using pymatgen
data_YTe3
_symmetry_space_group_name_H-M   'P 1'
_cell_length_a   13.19940885
_cell_length_b   13.19940885
_cell_length_c   4.34712200
_cell_angle_alpha   90.00000000
_cell_angle_beta   90.00000000
_cell_angle_gamma   161.04640257
_symmetry_Int_Tables_number   1
_chemical_formula_structural   YTe3
_chemical_formula_sum   'Y2 Te6'
_cell_volume   245.99703813
_cell_formula_units_Z   2
loop_
 _symmetry_equiv_pos_site_id
 _symmetry_equiv_pos_as_xyz
  1  'x, y, z'
loop_
 _atom_site_type_symbol
 _atom_site_label
 _atom_site_symmetry_multiplicity
 _atom_site_fract_x
 _atom_site_fract_y
 _atom_site_fract_z
 _atom_site_occupancy
  Y  Y0  1  0.16966900  0.83033100  0.75000000  1
  Y  Y1  1  0.83033100  0.16966900  0.25000000  1
  Te  Te2  1  0.92560200  0.07439800  0.75000000  1
  Te  Te3  1  0.07439800  0.92560200  0.25000000  1
  Te  Te4  1  0.57450400  0.42549600  0.75000000  1
  Te  Te5  1  0.42549600  0.57450400  0.25000000  1
  Te  Te6  1  0.29348200  0.70651800  0.75000000  1
  Te  Te7  1  0.70651800  0.29348200  0.25000000  1
