# generated using pymatgen
data_Lu2Ni12P7
_symmetry_space_group_name_H-M   'P 1'
_cell_length_a   9.00757048
_cell_length_b   9.00757048
_cell_length_c   3.64714800
_cell_angle_alpha   90.00000000
_cell_angle_beta   90.00000000
_cell_angle_gamma   120.00000352
_symmetry_Int_Tables_number   1
_chemical_formula_structural   Lu2Ni12P7
_chemical_formula_sum   'Lu2 Ni12 P7'
_cell_volume   256.27092787
_cell_formula_units_Z   1
loop_
 _symmetry_equiv_pos_site_id
 _symmetry_equiv_pos_as_xyz
  1  'x, y, z'
loop_
 _atom_site_type_symbol
 _atom_site_label
 _atom_site_symmetry_multiplicity
 _atom_site_fract_x
 _atom_site_fract_y
 _atom_site_fract_z
 _atom_site_occupancy
  Lu  Lu0  1  0.33333300  0.66666700  0.00000000  1
  Lu  Lu1  1  0.66666700  0.33333300  0.50000000  1
  Ni  Ni2  1  0.15308400  0.27601000  0.00000000  1
  Ni  Ni3  1  0.72399000  0.87707300  0.00000000  1
  Ni  Ni4  1  0.12292700  0.84691600  0.00000000  1
  Ni  Ni5  1  0.38173800  0.43177600  0.50000000  1
  Ni  Ni6  1  0.56822400  0.94996200  0.50000000  1
  Ni  Ni7  1  0.05003800  0.61826200  0.50000000  1
  Ni  Ni8  1  0.43663400  0.06108400  0.00000000  1
  Ni  Ni9  1  0.93891600  0.37555000  0.00000000  1
  Ni  Ni10  1  0.62445000  0.56336600  0.00000000  1
  Ni  Ni11  1  0.21671200  0.09373500  0.50000000  1
  Ni  Ni12  1  0.90626500  0.12297700  0.50000000  1
  Ni  Ni13  1  0.87702300  0.78328800  0.50000000  1
  P  P14  1  0.11367300  0.40823200  0.50000000  1
  P  P15  1  0.59176800  0.70544100  0.50000000  1
  P  P16  1  0.29455900  0.88632700  0.50000000  1
  P  P17  1  0.40797800  0.29161000  0.00000000  1
  P  P18  1  0.70839000  0.11636800  0.00000000  1
  P  P19  1  0.88363200  0.59202200  0.00000000  1
  P  P20  1  0.00000000  0.00000000  0.00000000  1
