# generated using pymatgen
data_La11In9Ni4
_symmetry_space_group_name_H-M   'P 1'
_cell_length_a   13.60713357
_cell_length_b   13.60713357
_cell_length_c   3.86010500
_cell_angle_alpha   90.00000000
_cell_angle_beta   90.00000000
_cell_angle_gamma   112.49784640
_symmetry_Int_Tables_number   1
_chemical_formula_structural   La11In9Ni4
_chemical_formula_sum   'La11 In9 Ni4'
_cell_volume   660.32010641
_cell_formula_units_Z   1
loop_
 _symmetry_equiv_pos_site_id
 _symmetry_equiv_pos_as_xyz
  1  'x, y, z'
loop_
 _atom_site_type_symbol
 _atom_site_label
 _atom_site_symmetry_multiplicity
 _atom_site_fract_x
 _atom_site_fract_y
 _atom_site_fract_z
 _atom_site_occupancy
  La  La0  1  0.31284200  0.31284200  0.00000000  1
  La  La1  1  0.68715800  0.68715800  0.00000000  1
  La  La2  1  0.00000000  0.00000000  0.00000000  1
  La  La3  1  0.07900900  0.41769300  0.00000000  1
  La  La4  1  0.92099100  0.58230700  0.00000000  1
  La  La5  1  0.41769300  0.07900900  0.00000000  1
  La  La6  1  0.58230700  0.92099100  0.00000000  1
  La  La7  1  0.83797100  0.16202900  0.00000000  1
  La  La8  1  0.16202900  0.83797100  0.00000000  1
  La  La9  1  0.62442400  0.37557600  0.00000000  1
  La  La10  1  0.37557600  0.62442400  0.00000000  1
  In  In11  1  0.83524900  0.36715600  0.50000000  1
  In  In12  1  0.16475100  0.63284400  0.50000000  1
  In  In13  1  0.36715600  0.83524900  0.50000000  1
  In  In14  1  0.63284400  0.16475100  0.50000000  1
  In  In15  1  0.08094000  0.22164300  0.50000000  1
  In  In16  1  0.91906000  0.77835700  0.50000000  1
  In  In17  1  0.22164300  0.08094000  0.50000000  1
  In  In18  1  0.77835700  0.91906000  0.50000000  1
  In  In19  1  0.50000000  0.50000000  0.50000000  1
  Ni  Ni20  1  0.24233300  0.44659800  0.50000000  1
  Ni  Ni21  1  0.75766700  0.55340200  0.50000000  1
  Ni  Ni22  1  0.44659800  0.24233300  0.50000000  1
  Ni  Ni23  1  0.55340200  0.75766700  0.50000000  1
