# generated using pymatgen
data_RbMgPO4
_symmetry_space_group_name_H-M   'P 1'
_cell_length_a   5.47236100
_cell_length_b   8.77967500
_cell_length_c   9.37891600
_cell_angle_alpha   90.00000000
_cell_angle_beta   90.00000000
_cell_angle_gamma   90.00000000
_symmetry_Int_Tables_number   1
_chemical_formula_structural   RbMgPO4
_chemical_formula_sum   'Rb4 Mg4 P4 O16'
_cell_volume   450.61518759
_cell_formula_units_Z   4
loop_
 _symmetry_equiv_pos_site_id
 _symmetry_equiv_pos_as_xyz
  1  'x, y, z'
loop_
 _atom_site_type_symbol
 _atom_site_label
 _atom_site_symmetry_multiplicity
 _atom_site_fract_x
 _atom_site_fract_y
 _atom_site_fract_z
 _atom_site_occupancy
  Rb  Rb0  1  0.23242500  0.49674700  0.22201500  1
  Rb  Rb1  1  0.23242500  0.99674700  0.27798500  1
  Rb  Rb2  1  0.73242500  0.00325300  0.72201500  1
  Rb  Rb3  1  0.73242500  0.50325300  0.77798500  1
  Mg  Mg4  1  0.24821500  0.31298300  0.58516300  1
  Mg  Mg5  1  0.24821500  0.81298300  0.91483700  1
  Mg  Mg6  1  0.74821500  0.18701700  0.08516300  1
  Mg  Mg7  1  0.74821500  0.68701700  0.41483700  1
  P  P8  1  0.24582700  0.70920300  0.57680400  1
  P  P9  1  0.24582700  0.20920300  0.92319600  1
  P  P10  1  0.74582700  0.79079700  0.07680400  1
  P  P11  1  0.74582700  0.29079700  0.42319600  1
  O  O12  1  0.98607000  0.77629100  0.55077400  1
  O  O13  1  0.98607000  0.27629100  0.94922600  1
  O  O14  1  0.22952500  0.53347500  0.57811800  1
  O  O15  1  0.22952500  0.03347500  0.92188200  1
  O  O16  1  0.35192700  0.76503100  0.72092800  1
  O  O17  1  0.35192700  0.26503100  0.77907200  1
  O  O18  1  0.41821200  0.26288700  0.04525000  1
  O  O19  1  0.41821200  0.76288700  0.45475000  1
  O  O20  1  0.48607000  0.72370900  0.05077400  1
  O  O21  1  0.48607000  0.22370900  0.44922600  1
  O  O22  1  0.72952500  0.96652500  0.07811800  1
  O  O23  1  0.72952500  0.46652500  0.42188200  1
  O  O24  1  0.85192700  0.73496900  0.22092800  1
  O  O25  1  0.85192700  0.23496900  0.27907200  1
  O  O26  1  0.91821200  0.23711300  0.54525000  1
  O  O27  1  0.91821200  0.73711300  0.95475000  1
