# generated using pymatgen
data_Sm(BOs)2
_symmetry_space_group_name_H-M   'P 1'
_cell_length_a   6.73172089
_cell_length_b   5.98849470
_cell_length_c   5.62884972
_cell_angle_alpha   70.74702460
_cell_angle_beta   57.12324486
_cell_angle_gamma   52.12973054
_symmetry_Int_Tables_number   1
_chemical_formula_structural   Sm(BOs)2
_chemical_formula_sum   'Sm2 B4 Os4'
_cell_volume   150.43630561
_cell_formula_units_Z   2
loop_
 _symmetry_equiv_pos_site_id
 _symmetry_equiv_pos_as_xyz
  1  'x, y, z'
loop_
 _atom_site_type_symbol
 _atom_site_label
 _atom_site_symmetry_multiplicity
 _atom_site_fract_x
 _atom_site_fract_y
 _atom_site_fract_z
 _atom_site_occupancy
  Sm  Sm0  1  0.00000000  0.00000000  0.00000000  1
  Sm  Sm1  1  0.25000000  0.25000000  0.25000000  1
  B  B2  1  0.68782400  0.31217600  0.68782400  1
  B  B3  1  0.31217600  0.68782400  0.31217600  1
  B  B4  1  0.93782400  0.56217600  0.93782400  1
  B  B5  1  0.56217600  0.93782400  0.56217600  1
  Os  Os6  1  0.61259800  0.61259800  0.88740200  1
  Os  Os7  1  0.63740200  0.63740200  0.36259800  1
  Os  Os8  1  0.36259800  0.36259800  0.63740200  1
  Os  Os9  1  0.88740200  0.88740200  0.61259800  1
