# generated using pymatgen
data_Li4NpO5
_symmetry_space_group_name_H-M   'P 1'
_cell_length_a   5.26674893
_cell_length_b   5.26674893
_cell_length_c   5.26674893
_cell_angle_alpha   100.24299296
_cell_angle_beta   100.24299296
_cell_angle_gamma   130.11722790
_symmetry_Int_Tables_number   1
_chemical_formula_structural   Li4NpO5
_chemical_formula_sum   'Li4 Np1 O5'
_cell_volume   101.30182513
_cell_formula_units_Z   1
loop_
 _symmetry_equiv_pos_site_id
 _symmetry_equiv_pos_as_xyz
  1  'x, y, z'
loop_
 _atom_site_type_symbol
 _atom_site_label
 _atom_site_symmetry_multiplicity
 _atom_site_fract_x
 _atom_site_fract_y
 _atom_site_fract_z
 _atom_site_occupancy
  Li  Li0  1  0.18964900  0.58686500  0.77651400  1
  Li  Li1  1  0.58686500  0.81035100  0.39721500  1
  Li  Li2  1  0.41313500  0.18964900  0.60278500  1
  Li  Li3  1  0.81035100  0.41313500  0.22348600  1
  Np  Np4  1  0.00000000  0.00000000  0.00000000  1
  O  O5  1  0.50000000  0.50000000  0.00000000  1
  O  O6  1  0.91323100  0.71511300  0.62834400  1
  O  O7  1  0.28488700  0.91323100  0.19811800  1
  O  O8  1  0.08676900  0.28488700  0.37165600  1
  O  O9  1  0.71511300  0.08676900  0.80188200  1
