# generated using pymatgen
data_Re2C
_symmetry_space_group_name_H-M   'P 1'
_cell_length_a   2.86602572
_cell_length_b   2.86602572
_cell_length_c   9.91511300
_cell_angle_alpha   90.00000000
_cell_angle_beta   90.00000000
_cell_angle_gamma   119.99999352
_symmetry_Int_Tables_number   1
_chemical_formula_structural   Re2C
_chemical_formula_sum   'Re4 C2'
_cell_volume   70.53237290
_cell_formula_units_Z   2
loop_
 _symmetry_equiv_pos_site_id
 _symmetry_equiv_pos_as_xyz
  1  'x, y, z'
loop_
 _atom_site_type_symbol
 _atom_site_label
 _atom_site_symmetry_multiplicity
 _atom_site_fract_x
 _atom_site_fract_y
 _atom_site_fract_z
 _atom_site_occupancy
  Re  Re0  1  0.33333300  0.66666700  0.60838600  1
  Re  Re1  1  0.66666700  0.33333300  0.10838600  1
  Re  Re2  1  0.66666700  0.33333300  0.39161400  1
  Re  Re3  1  0.33333300  0.66666700  0.89161400  1
  C  C4  1  0.33333300  0.66666700  0.25000000  1
  C  C5  1  0.66666700  0.33333300  0.75000000  1
