# generated using pymatgen
data_NdRh
_symmetry_space_group_name_H-M   'P 1'
_cell_length_a   5.84615506
_cell_length_b   5.84615506
_cell_length_c   4.25473400
_cell_angle_alpha   90.00000000
_cell_angle_beta   90.00000000
_cell_angle_gamma   140.13663512
_symmetry_Int_Tables_number   1
_chemical_formula_structural   NdRh
_chemical_formula_sum   'Nd2 Rh2'
_cell_volume   93.20587864
_cell_formula_units_Z   2
loop_
 _symmetry_equiv_pos_site_id
 _symmetry_equiv_pos_as_xyz
  1  'x, y, z'
loop_
 _atom_site_type_symbol
 _atom_site_label
 _atom_site_symmetry_multiplicity
 _atom_site_fract_x
 _atom_site_fract_y
 _atom_site_fract_z
 _atom_site_occupancy
  Nd  Nd0  1  0.85825700  0.14174300  0.75000000  1
  Nd  Nd1  1  0.14174300  0.85825700  0.25000000  1
  Rh  Rh2  1  0.58477000  0.41523000  0.75000000  1
  Rh  Rh3  1  0.41523000  0.58477000  0.25000000  1
