# generated using pymatgen
data_LiAgO2
_symmetry_space_group_name_H-M   'P 1'
_cell_length_a   3.76846500
_cell_length_b   4.77505900
_cell_length_c   5.40112942
_cell_angle_alpha   82.27600732
_cell_angle_beta   90.00000000
_cell_angle_gamma   90.00000000
_symmetry_Int_Tables_number   1
_chemical_formula_structural   LiAgO2
_chemical_formula_sum   'Li2 Ag2 O4'
_cell_volume   96.30957714
_cell_formula_units_Z   2
loop_
 _symmetry_equiv_pos_site_id
 _symmetry_equiv_pos_as_xyz
  1  'x, y, z'
loop_
 _atom_site_type_symbol
 _atom_site_label
 _atom_site_symmetry_multiplicity
 _atom_site_fract_x
 _atom_site_fract_y
 _atom_site_fract_z
 _atom_site_occupancy
  Li  Li0  1  0.00000000  0.50000000  0.50000000  1
  Li  Li1  1  0.50000000  0.50000000  0.00000000  1
  Ag  Ag2  1  0.00000000  0.00000000  0.00000000  1
  Ag  Ag3  1  0.50000000  0.00000000  0.50000000  1
  O  O4  1  0.30861300  0.24743400  0.74871200  1
  O  O5  1  0.69138700  0.75256600  0.25128800  1
  O  O6  1  0.19138700  0.24743400  0.24871200  1
  O  O7  1  0.80861300  0.75256600  0.75128800  1
