# generated using pymatgen
data_CsAsF6
_symmetry_space_group_name_H-M   'P 1'
_cell_length_a   5.33309093
_cell_length_b   5.33309093
_cell_length_c   5.33309144
_cell_angle_alpha   96.40015949
_cell_angle_beta   96.40015949
_cell_angle_gamma   96.40015186
_symmetry_Int_Tables_number   1
_chemical_formula_structural   CsAsF6
_chemical_formula_sum   'Cs1 As1 F6'
_cell_volume   148.61469338
_cell_formula_units_Z   1
loop_
 _symmetry_equiv_pos_site_id
 _symmetry_equiv_pos_as_xyz
  1  'x, y, z'
loop_
 _atom_site_type_symbol
 _atom_site_label
 _atom_site_symmetry_multiplicity
 _atom_site_fract_x
 _atom_site_fract_y
 _atom_site_fract_z
 _atom_site_occupancy
  Cs  Cs0  1  0.50000000  0.50000000  0.50000000  1
  As  As1  1  0.00000000  0.00000000  0.00000000  1
  F  F2  1  0.26477900  0.19509400  0.92112500  1
  F  F3  1  0.92112500  0.26477900  0.19509400  1
  F  F4  1  0.80490600  0.07887500  0.73522100  1
  F  F5  1  0.07887500  0.73522100  0.80490600  1
  F  F6  1  0.73522100  0.80490600  0.07887500  1
  F  F7  1  0.19509400  0.92112500  0.26477900  1
