# generated using pymatgen
data_K3Ta3(BO6)2
_symmetry_space_group_name_H-M   'P 1'
_cell_length_a   8.88869640
_cell_length_b   8.88869640
_cell_length_c   3.94721100
_cell_angle_alpha   90.00000000
_cell_angle_beta   90.00000000
_cell_angle_gamma   120.00000295
_symmetry_Int_Tables_number   1
_chemical_formula_structural   K3Ta3(BO6)2
_chemical_formula_sum   'K3 Ta3 B2 O12'
_cell_volume   270.08291136
_cell_formula_units_Z   1
loop_
 _symmetry_equiv_pos_site_id
 _symmetry_equiv_pos_as_xyz
  1  'x, y, z'
loop_
 _atom_site_type_symbol
 _atom_site_label
 _atom_site_symmetry_multiplicity
 _atom_site_fract_x
 _atom_site_fract_y
 _atom_site_fract_z
 _atom_site_occupancy
  K  K0  1  0.40386700  0.00000000  0.50000000  1
  K  K1  1  0.59613300  0.59613300  0.50000000  1
  K  K2  1  0.00000000  0.40386700  0.50000000  1
  Ta  Ta3  1  0.75337900  0.00000000  0.00000000  1
  Ta  Ta4  1  0.24662100  0.24662100  0.00000000  1
  Ta  Ta5  1  0.00000000  0.75337900  0.00000000  1
  B  B6  1  0.33333300  0.66666700  0.00000000  1
  B  B7  1  0.66666700  0.33333300  0.00000000  1
  O  O8  1  0.81144300  0.49677900  0.00000000  1
  O  O9  1  0.49677900  0.81144300  0.00000000  1
  O  O10  1  0.18855700  0.68533700  0.00000000  1
  O  O11  1  0.31466300  0.50322100  0.00000000  1
  O  O12  1  0.50322100  0.31466300  0.00000000  1
  O  O13  1  0.68533700  0.18855700  0.00000000  1
  O  O14  1  0.73694300  0.00000000  0.50000000  1
  O  O15  1  0.26305700  0.26305700  0.50000000  1
  O  O16  1  0.00000000  0.73694300  0.50000000  1
  O  O17  1  0.17900600  0.00000000  0.00000000  1
  O  O18  1  0.82099400  0.82099400  0.00000000  1
  O  O19  1  0.00000000  0.17900600  0.00000000  1
