# generated using pymatgen
data_Ba4Sb2O
_symmetry_space_group_name_H-M   'P 1'
_cell_length_a   9.96214264
_cell_length_b   9.96214264
_cell_length_c   9.96214264
_cell_angle_alpha   148.96085513
_cell_angle_beta   148.96085513
_cell_angle_gamma   44.46892859
_symmetry_Int_Tables_number   1
_chemical_formula_structural   Ba4Sb2O
_chemical_formula_sum   'Ba4 Sb2 O1'
_cell_volume   262.07687257
_cell_formula_units_Z   1
loop_
 _symmetry_equiv_pos_site_id
 _symmetry_equiv_pos_as_xyz
  1  'x, y, z'
loop_
 _atom_site_type_symbol
 _atom_site_label
 _atom_site_symmetry_multiplicity
 _atom_site_fract_x
 _atom_site_fract_y
 _atom_site_fract_z
 _atom_site_occupancy
  Ba  Ba0  1  0.67114200  0.67114200  0.00000000  1
  Ba  Ba1  1  0.32885800  0.32885800  0.00000000  1
  Ba  Ba2  1  0.50000000  0.00000000  0.50000000  1
  Ba  Ba3  1  0.00000000  0.50000000  0.50000000  1
  Sb  Sb4  1  0.86257400  0.86257400  0.00000000  1
  Sb  Sb5  1  0.13742600  0.13742600  0.00000000  1
  O  O6  1  0.50000000  0.50000000  0.00000000  1
