# generated using pymatgen
data_Sr(AuO2)2
_symmetry_space_group_name_H-M   'P 1'
_cell_length_a   6.82409371
_cell_length_b   6.82409371
_cell_length_c   6.82409371
_cell_angle_alpha   124.91679683
_cell_angle_beta   124.91679683
_cell_angle_gamma   81.67589061
_symmetry_Int_Tables_number   1
_chemical_formula_structural   Sr(AuO2)2
_chemical_formula_sum   'Sr2 Au4 O8'
_cell_volume   205.61802242
_cell_formula_units_Z   2
loop_
 _symmetry_equiv_pos_site_id
 _symmetry_equiv_pos_as_xyz
  1  'x, y, z'
loop_
 _atom_site_type_symbol
 _atom_site_label
 _atom_site_symmetry_multiplicity
 _atom_site_fract_x
 _atom_site_fract_y
 _atom_site_fract_z
 _atom_site_occupancy
  Sr  Sr0  1  0.75000000  0.25000000  0.50000000  1
  Sr  Sr1  1  0.00000000  0.00000000  0.00000000  1
  Au  Au2  1  0.37500000  0.62500000  0.25000000  1
  Au  Au3  1  0.87500000  0.62500000  0.25000000  1
  Au  Au4  1  0.37500000  0.12500000  0.75000000  1
  Au  Au5  1  0.37500000  0.62500000  0.75000000  1
  O  O6  1  0.57985400  0.95140500  0.93511600  1
  O  O7  1  0.70140500  0.26629000  0.87155100  1
  O  O8  1  0.39473900  0.82985400  0.12844900  1
  O  O9  1  0.01629000  0.64473900  0.06488400  1
  O  O10  1  0.17014600  0.29859500  0.56488400  1
  O  O11  1  0.04859500  0.98371000  0.62844900  1
  O  O12  1  0.73371000  0.60526100  0.43511600  1
  O  O13  1  0.35526100  0.42014600  0.37155100  1
