# generated using pymatgen
data_Li4ZrF8
_symmetry_space_group_name_H-M   'P 1'
_cell_length_a   5.75789700
_cell_length_b   9.73840100
_cell_length_c   9.74687900
_cell_angle_alpha   90.00000000
_cell_angle_beta   90.00000000
_cell_angle_gamma   90.00000000
_symmetry_Int_Tables_number   1
_chemical_formula_structural   Li4ZrF8
_chemical_formula_sum   'Li16 Zr4 F32'
_cell_volume   546.53391862
_cell_formula_units_Z   4
loop_
 _symmetry_equiv_pos_site_id
 _symmetry_equiv_pos_as_xyz
  1  'x, y, z'
loop_
 _atom_site_type_symbol
 _atom_site_label
 _atom_site_symmetry_multiplicity
 _atom_site_fract_x
 _atom_site_fract_y
 _atom_site_fract_z
 _atom_site_occupancy
  Li  Li0  1  0.11867400  0.36941000  0.05848200  1
  Li  Li1  1  0.61867400  0.13059000  0.94151800  1
  Li  Li2  1  0.38132600  0.86941000  0.44151800  1
  Li  Li3  1  0.88132600  0.63059000  0.55848200  1
  Li  Li4  1  0.88132600  0.63059000  0.94151800  1
  Li  Li5  1  0.38132600  0.86941000  0.05848200  1
  Li  Li6  1  0.61867400  0.13059000  0.55848200  1
  Li  Li7  1  0.11867400  0.36941000  0.44151800  1
  Li  Li8  1  0.63011700  0.39713400  0.08086600  1
  Li  Li9  1  0.13011700  0.10286600  0.91913400  1
  Li  Li10  1  0.86988300  0.89713400  0.41913400  1
  Li  Li11  1  0.36988300  0.60286600  0.58086600  1
  Li  Li12  1  0.36988300  0.60286600  0.91913400  1
  Li  Li13  1  0.86988300  0.89713400  0.08086600  1
  Li  Li14  1  0.13011700  0.10286600  0.58086600  1
  Li  Li15  1  0.63011700  0.39713400  0.41913400  1
  Zr  Zr16  1  0.37015100  0.13442300  0.25000000  1
  Zr  Zr17  1  0.62984900  0.86557700  0.75000000  1
  Zr  Zr18  1  0.12984900  0.63442300  0.25000000  1
  Zr  Zr19  1  0.87015100  0.36557700  0.75000000  1
  F  F20  1  0.85321200  0.98040500  0.61627900  1
  F  F21  1  0.38129000  0.71197900  0.75000000  1
  F  F22  1  0.88129000  0.78802100  0.25000000  1
  F  F23  1  0.11871000  0.21197900  0.75000000  1
  F  F24  1  0.14678800  0.01959500  0.11627900  1
  F  F25  1  0.64678800  0.48040500  0.88372100  1
  F  F26  1  0.35321200  0.51959500  0.38372100  1
  F  F27  1  0.64678800  0.48040500  0.61627900  1
  F  F28  1  0.85321200  0.98040500  0.88372100  1
  F  F29  1  0.35321200  0.51959500  0.11627900  1
  F  F30  1  0.10173700  0.47750900  0.62119000  1
  F  F31  1  0.14678800  0.01959500  0.38372100  1
  F  F32  1  0.60173700  0.02249100  0.12119000  1
  F  F33  1  0.10173700  0.47750900  0.87881000  1
  F  F34  1  0.89826300  0.52249100  0.37881000  1
  F  F35  1  0.39826300  0.97750900  0.62119000  1
  F  F36  1  0.39826300  0.97750900  0.87881000  1
  F  F37  1  0.89826300  0.52249100  0.12119000  1
  F  F38  1  0.87983400  0.71421000  0.75000000  1
  F  F39  1  0.60173700  0.02249100  0.37881000  1
  F  F40  1  0.37179400  0.23433500  0.46311300  1
  F  F41  1  0.87179400  0.26566500  0.53688700  1
  F  F42  1  0.12820600  0.73433500  0.03688700  1
  F  F43  1  0.62820600  0.76566500  0.96311300  1
  F  F44  1  0.62820600  0.76566500  0.53688700  1
  F  F45  1  0.12820600  0.73433500  0.46311300  1
  F  F46  1  0.87179400  0.26566500  0.96311300  1
  F  F47  1  0.37179400  0.23433500  0.03688700  1
  F  F48  1  0.12016600  0.28579000  0.25000000  1
  F  F49  1  0.62016600  0.21421000  0.75000000  1
  F  F50  1  0.37983400  0.78579000  0.25000000  1
  F  F51  1  0.61871000  0.28802100  0.25000000  1
