# generated using pymatgen
data_VP2
_symmetry_space_group_name_H-M   'P 1'
_cell_length_a   4.50421185
_cell_length_b   4.50421185
_cell_length_c   7.17335127
_cell_angle_alpha   62.77034468
_cell_angle_beta   62.77034468
_cell_angle_gamma   40.34827511
_symmetry_Int_Tables_number   1
_chemical_formula_structural   VP2
_chemical_formula_sum   'V2 P4'
_cell_volume   82.26956099
_cell_formula_units_Z   2
loop_
 _symmetry_equiv_pos_site_id
 _symmetry_equiv_pos_as_xyz
  1  'x, y, z'
loop_
 _atom_site_type_symbol
 _atom_site_label
 _atom_site_symmetry_multiplicity
 _atom_site_fract_x
 _atom_site_fract_y
 _atom_site_fract_z
 _atom_site_occupancy
  V  V0  1  0.15635300  0.15635300  0.30197100  1
  V  V1  1  0.84364700  0.84364700  0.69802900  1
  P  P2  1  0.85760700  0.85760700  0.02985500  1
  P  P3  1  0.14239300  0.14239300  0.97014500  1
  P  P4  1  0.60033700  0.60033700  0.59888700  1
  P  P5  1  0.39966300  0.39966300  0.40111300  1
