# generated using pymatgen
data_SmCu
_symmetry_space_group_name_H-M   'P 1'
_cell_length_a   4.51671800
_cell_length_b   5.47434100
_cell_length_c   7.22417300
_cell_angle_alpha   90.00000000
_cell_angle_beta   90.00000000
_cell_angle_gamma   90.00000000
_symmetry_Int_Tables_number   1
_chemical_formula_structural   SmCu
_chemical_formula_sum   'Sm4 Cu4'
_cell_volume   178.62529555
_cell_formula_units_Z   4
loop_
 _symmetry_equiv_pos_site_id
 _symmetry_equiv_pos_as_xyz
  1  'x, y, z'
loop_
 _atom_site_type_symbol
 _atom_site_label
 _atom_site_symmetry_multiplicity
 _atom_site_fract_x
 _atom_site_fract_y
 _atom_site_fract_z
 _atom_site_occupancy
  Sm  Sm0  1  0.25000000  0.63010200  0.68019700  1
  Sm  Sm1  1  0.75000000  0.13010200  0.81980300  1
  Sm  Sm2  1  0.25000000  0.86989800  0.18019700  1
  Sm  Sm3  1  0.75000000  0.36989800  0.31980300  1
  Cu  Cu4  1  0.25000000  0.12016500  0.53339300  1
  Cu  Cu5  1  0.75000000  0.62016500  0.96660700  1
  Cu  Cu6  1  0.25000000  0.37983500  0.03339300  1
  Cu  Cu7  1  0.75000000  0.87983500  0.46660700  1
