# generated using pymatgen
data_CsAuO2
_symmetry_space_group_name_H-M   'P 1'
_cell_length_a   6.85838950
_cell_length_b   6.85838950
_cell_length_c   6.16146000
_cell_angle_alpha   90.00000000
_cell_angle_beta   90.00000000
_cell_angle_gamma   134.12305986
_symmetry_Int_Tables_number   1
_chemical_formula_structural   CsAuO2
_chemical_formula_sum   'Cs2 Au2 O4'
_cell_volume   208.04596797
_cell_formula_units_Z   2
loop_
 _symmetry_equiv_pos_site_id
 _symmetry_equiv_pos_as_xyz
  1  'x, y, z'
loop_
 _atom_site_type_symbol
 _atom_site_label
 _atom_site_symmetry_multiplicity
 _atom_site_fract_x
 _atom_site_fract_y
 _atom_site_fract_z
 _atom_site_occupancy
  Cs  Cs0  1  0.30857000  0.69143000  0.25000000  1
  Cs  Cs1  1  0.69143000  0.30857000  0.75000000  1
  Au  Au2  1  0.99788000  0.00212000  0.75000000  1
  Au  Au3  1  0.00212000  0.99788000  0.25000000  1
  O  O4  1  0.10618000  0.89382000  0.99601000  1
  O  O5  1  0.89382000  0.10618000  0.49601000  1
  O  O6  1  0.10618000  0.89382000  0.50399000  1
  O  O7  1  0.89382000  0.10618000  0.00399000  1
