# generated using pymatgen
data_Tb3ReB7
_symmetry_space_group_name_H-M   'P 1'
_cell_length_a   8.13166755
_cell_length_b   8.13166755
_cell_length_c   9.39183300
_cell_angle_alpha   90.00000000
_cell_angle_beta   90.00000000
_cell_angle_gamma   154.78632995
_symmetry_Int_Tables_number   1
_chemical_formula_structural   Tb3ReB7
_chemical_formula_sum   'Tb6 Re2 B14'
_cell_volume   264.55395372
_cell_formula_units_Z   2
loop_
 _symmetry_equiv_pos_site_id
 _symmetry_equiv_pos_as_xyz
  1  'x, y, z'
loop_
 _atom_site_type_symbol
 _atom_site_label
 _atom_site_symmetry_multiplicity
 _atom_site_fract_x
 _atom_site_fract_y
 _atom_site_fract_z
 _atom_site_occupancy
  Tb  Tb0  1  0.89483800  0.10516200  0.06042900  1
  Tb  Tb1  1  0.10516200  0.89483800  0.56042900  1
  Tb  Tb2  1  0.10516200  0.89483800  0.93957100  1
  Tb  Tb3  1  0.89483800  0.10516200  0.43957100  1
  Tb  Tb4  1  0.24241300  0.75758700  0.25000000  1
  Tb  Tb5  1  0.75758700  0.24241300  0.75000000  1
  Re  Re6  1  0.05314100  0.94685800  0.25000000  1
  Re  Re7  1  0.94685900  0.05314100  0.75000000  1
  B  B8  1  0.45891900  0.54108100  0.25000000  1
  B  B9  1  0.54108100  0.45891900  0.75000000  1
  B  B10  1  0.72692000  0.27308000  0.03303900  1
  B  B11  1  0.27308000  0.72692000  0.53303900  1
  B  B12  1  0.27308000  0.72692000  0.96696100  1
  B  B13  1  0.72692000  0.27308000  0.46696100  1
  B  B14  1  0.63201000  0.36799000  0.34909700  1
  B  B15  1  0.36799000  0.63201000  0.84909700  1
  B  B16  1  0.36799000  0.63201000  0.65090300  1
  B  B17  1  0.63201000  0.36799000  0.15090300  1
  B  B18  1  0.52142000  0.47858000  0.40416300  1
  B  B19  1  0.47858000  0.52142000  0.90416300  1
  B  B20  1  0.47858000  0.52142000  0.59583700  1
  B  B21  1  0.52142000  0.47858000  0.09583700  1
