# generated using pymatgen
data_Ag8GeS6
_symmetry_space_group_name_H-M   'P 1'
_cell_length_a   7.62616100
_cell_length_b   10.74315500
_cell_length_c   15.31324500
_cell_angle_alpha   90.00000000
_cell_angle_beta   90.00000000
_cell_angle_gamma   90.00000000
_symmetry_Int_Tables_number   1
_chemical_formula_structural   Ag8GeS6
_chemical_formula_sum   'Ag32 Ge4 S24'
_cell_volume   1254.59930407
_cell_formula_units_Z   4
loop_
 _symmetry_equiv_pos_site_id
 _symmetry_equiv_pos_as_xyz
  1  'x, y, z'
loop_
 _atom_site_type_symbol
 _atom_site_label
 _atom_site_symmetry_multiplicity
 _atom_site_fract_x
 _atom_site_fract_y
 _atom_site_fract_z
 _atom_site_occupancy
  Ag  Ag0  1  0.99494500  0.09501700  0.77159300  1
  Ag  Ag1  1  0.87365400  0.40563800  0.73936800  1
  Ag  Ag2  1  0.12634600  0.90563800  0.26063200  1
  Ag  Ag3  1  0.62634600  0.40563800  0.23936800  1
  Ag  Ag4  1  0.51654000  0.11181900  0.48351000  1
  Ag  Ag5  1  0.48346000  0.61181900  0.51649000  1
  Ag  Ag6  1  0.98346000  0.11181900  0.98351000  1
  Ag  Ag7  1  0.01654000  0.61181900  0.01649000  1
  Ag  Ag8  1  0.87913000  0.19116900  0.22896700  1
  Ag  Ag9  1  0.12087000  0.69116900  0.77103300  1
  Ag  Ag10  1  0.62087000  0.19116900  0.72896700  1
  Ag  Ag11  1  0.37913000  0.69116900  0.27103300  1
  Ag  Ag12  1  0.61087000  0.19042900  0.08763700  1
  Ag  Ag13  1  0.38913000  0.69042900  0.91236300  1
  Ag  Ag14  1  0.88913000  0.19042900  0.58763700  1
  Ag  Ag15  1  0.11087000  0.69042900  0.41236300  1
  Ag  Ag16  1  0.00505500  0.59501700  0.22840700  1
  Ag  Ag17  1  0.37365400  0.90563800  0.76063200  1
  Ag  Ag18  1  0.49494500  0.59501700  0.72840700  1
  Ag  Ag19  1  0.50505500  0.09501700  0.27159300  1
  Ag  Ag20  1  0.56653900  0.52205200  0.06641100  1
  Ag  Ag21  1  0.43346100  0.02205200  0.93358900  1
  Ag  Ag22  1  0.93346100  0.52205200  0.56641100  1
  Ag  Ag23  1  0.06653900  0.02205200  0.43358900  1
  Ag  Ag24  1  0.73383900  0.33558100  0.43688100  1
  Ag  Ag25  1  0.26616100  0.83558100  0.56311900  1
  Ag  Ag26  1  0.76616100  0.33558100  0.93688100  1
  Ag  Ag27  1  0.23383900  0.83558100  0.06311900  1
  Ag  Ag28  1  0.77054800  0.86987600  0.37050700  1
  Ag  Ag29  1  0.22945200  0.36987600  0.62949300  1
  Ag  Ag30  1  0.72945200  0.86987600  0.87050700  1
  Ag  Ag31  1  0.27054800  0.36987600  0.12949300  1
  Ge  Ge32  1  0.73380200  0.85039400  0.12383000  1
  Ge  Ge33  1  0.26619800  0.35039400  0.87617000  1
  Ge  Ge34  1  0.76619800  0.85039400  0.62383000  1
  Ge  Ge35  1  0.23380200  0.35039400  0.37617000  1
  S  S36  1  0.76544900  0.10563300  0.37625200  1
  S  S37  1  0.23455100  0.60563300  0.62374800  1
  S  S38  1  0.73455100  0.10563300  0.87625200  1
  S  S39  1  0.26544900  0.60563300  0.12374800  1
  S  S40  1  0.81268700  0.36785700  0.11223600  1
  S  S41  1  0.18731300  0.86785700  0.88776400  1
  S  S42  1  0.68731300  0.36785700  0.61223600  1
  S  S43  1  0.31268700  0.86785700  0.38776400  1
  S  S44  1  0.72562200  0.72776200  0.24188800  1
  S  S45  1  0.27437800  0.22776200  0.75811200  1
  S  S46  1  0.77437800  0.72776200  0.74188800  1
  S  S47  1  0.22562200  0.22776200  0.25811200  1
  S  S48  1  0.97362100  0.97378000  0.12684900  1
  S  S49  1  0.02637900  0.47378000  0.87315100  1
  S  S50  1  0.52637900  0.97378000  0.62684900  1
  S  S51  1  0.47362100  0.47378000  0.37315100  1
  S  S52  1  0.76925200  0.72780000  0.50520300  1
  S  S53  1  0.23074800  0.22780000  0.49479700  1
  S  S54  1  0.73074800  0.72780000  0.00520300  1
  S  S55  1  0.26925200  0.22780000  0.99479700  1
  S  S56  1  0.99689300  0.47509400  0.37923400  1
  S  S57  1  0.00310700  0.97509400  0.62076600  1
  S  S58  1  0.50310700  0.47509400  0.87923400  1
  S  S59  1  0.49689300  0.97509400  0.12076600  1
