# generated using pymatgen
data_NaSmS2
_symmetry_space_group_name_H-M   'P 1'
_cell_length_a   7.10829192
_cell_length_b   7.10829192
_cell_length_c   7.10829207
_cell_angle_alpha   33.30938625
_cell_angle_beta   33.30938625
_cell_angle_gamma   33.30938644
_symmetry_Int_Tables_number   1
_chemical_formula_structural   NaSmS2
_chemical_formula_sum   'Na1 Sm1 S2'
_cell_volume   96.44053505
_cell_formula_units_Z   1
loop_
 _symmetry_equiv_pos_site_id
 _symmetry_equiv_pos_as_xyz
  1  'x, y, z'
loop_
 _atom_site_type_symbol
 _atom_site_label
 _atom_site_symmetry_multiplicity
 _atom_site_fract_x
 _atom_site_fract_y
 _atom_site_fract_z
 _atom_site_occupancy
  Na  Na0  1  0.50000000  0.50000000  0.50000000  1
  Sm  Sm1  1  0.00000000  0.00000000  0.00000000  1
  S  S2  1  0.74341500  0.74341500  0.74341500  1
  S  S3  1  0.25658500  0.25658500  0.25658500  1
