# generated using pymatgen
data_Zn3N2
_symmetry_space_group_name_H-M   'P 1'
_cell_length_a   8.53854456
_cell_length_b   8.53854456
_cell_length_c   8.53854456
_cell_angle_alpha   109.47122063
_cell_angle_beta   109.47122063
_cell_angle_gamma   109.47122063
_symmetry_Int_Tables_number   1
_chemical_formula_structural   Zn3N2
_chemical_formula_sum   'Zn24 N16'
_cell_volume   479.21417606
_cell_formula_units_Z   8
loop_
 _symmetry_equiv_pos_site_id
 _symmetry_equiv_pos_as_xyz
  1  'x, y, z'
loop_
 _atom_site_type_symbol
 _atom_site_label
 _atom_site_symmetry_multiplicity
 _atom_site_fract_x
 _atom_site_fract_y
 _atom_site_fract_z
 _atom_site_occupancy
  Zn  Zn0  1  0.27739000  0.02693200  0.04878800  1
  Zn  Zn1  1  0.74954100  0.22261000  0.27139800  1
  Zn  Zn2  1  0.02185600  0.47306800  0.75045900  1
  Zn  Zn3  1  0.47814400  0.22860200  0.45121200  1
  Zn  Zn4  1  0.45121200  0.47814400  0.22860200  1
  Zn  Zn5  1  0.02693200  0.04878800  0.27739000  1
  Zn  Zn6  1  0.27139800  0.74954100  0.22261000  1
  Zn  Zn7  1  0.47306800  0.75045900  0.02185600  1
  Zn  Zn8  1  0.75045900  0.02185600  0.47306800  1
  Zn  Zn9  1  0.22261000  0.27139800  0.74954100  1
  Zn  Zn10  1  0.04878800  0.27739000  0.02693200  1
  Zn  Zn11  1  0.22860200  0.45121200  0.47814400  1
  Zn  Zn12  1  0.52693200  0.24954100  0.97814400  1
  Zn  Zn13  1  0.72860200  0.25045900  0.77739000  1
  Zn  Zn14  1  0.97306800  0.95121200  0.72261000  1
  Zn  Zn15  1  0.54878800  0.52185600  0.77139800  1
  Zn  Zn16  1  0.52185600  0.77139800  0.54878800  1
  Zn  Zn17  1  0.97814400  0.52693200  0.24954100  1
  Zn  Zn18  1  0.25045900  0.77739000  0.72860200  1
  Zn  Zn19  1  0.72261000  0.97306800  0.95121200  1
  Zn  Zn20  1  0.24954100  0.97814400  0.52693200  1
  Zn  Zn21  1  0.77739000  0.72860200  0.25045900  1
  Zn  Zn22  1  0.95121200  0.72261000  0.97306800  1
  Zn  Zn23  1  0.77139800  0.54878800  0.52185600  1
  N  N24  1  0.73083200  0.48083200  0.25000000  1
  N  N25  1  0.75000000  0.76916800  0.01916800  1
  N  N26  1  0.01916800  0.75000000  0.76916800  1
  N  N27  1  0.25000000  0.73083200  0.48083200  1
  N  N28  1  0.48083200  0.25000000  0.73083200  1
  N  N29  1  0.76916800  0.01916800  0.75000000  1
  N  N30  1  0.26916800  0.51916800  0.75000000  1
  N  N31  1  0.25000000  0.23083200  0.98083200  1
  N  N32  1  0.98083200  0.25000000  0.23083200  1
  N  N33  1  0.75000000  0.26916800  0.51916800  1
  N  N34  1  0.51916800  0.75000000  0.26916800  1
  N  N35  1  0.23083200  0.98083200  0.25000000  1
  N  N36  1  0.50000000  0.00000000  0.00000000  1
  N  N37  1  0.00000000  0.00000000  0.50000000  1
  N  N38  1  0.00000000  0.50000000  0.00000000  1
  N  N39  1  0.50000000  0.50000000  0.50000000  1
