# generated using pymatgen
data_Nd2MgGe2
_symmetry_space_group_name_H-M   'P 1'
_cell_length_a   7.47483300
_cell_length_b   7.47483300
_cell_length_c   4.40795900
_cell_angle_alpha   90.00000000
_cell_angle_beta   90.00000000
_cell_angle_gamma   90.00000000
_symmetry_Int_Tables_number   1
_chemical_formula_structural   Nd2MgGe2
_chemical_formula_sum   'Nd4 Mg2 Ge4'
_cell_volume   246.28645909
_cell_formula_units_Z   2
loop_
 _symmetry_equiv_pos_site_id
 _symmetry_equiv_pos_as_xyz
  1  'x, y, z'
loop_
 _atom_site_type_symbol
 _atom_site_label
 _atom_site_symmetry_multiplicity
 _atom_site_fract_x
 _atom_site_fract_y
 _atom_site_fract_z
 _atom_site_occupancy
  Nd  Nd0  1  0.67850400  0.17850400  0.50000000  1
  Nd  Nd1  1  0.32149600  0.82149600  0.50000000  1
  Nd  Nd2  1  0.17850400  0.32149600  0.50000000  1
  Nd  Nd3  1  0.82149600  0.67850400  0.50000000  1
  Mg  Mg4  1  0.50000000  0.50000000  0.00000000  1
  Mg  Mg5  1  0.00000000  0.00000000  0.00000000  1
  Ge  Ge6  1  0.87855400  0.37855400  0.00000000  1
  Ge  Ge7  1  0.12144600  0.62144600  0.00000000  1
  Ge  Ge8  1  0.37855400  0.12144600  0.00000000  1
  Ge  Ge9  1  0.62144600  0.87855400  0.00000000  1
