# generated using pymatgen
data_Sr2MgGe2O7
_symmetry_space_group_name_H-M   'P 1'
_cell_length_a   8.26416500
_cell_length_b   8.26416500
_cell_length_c   5.37278800
_cell_angle_alpha   90.00000000
_cell_angle_beta   90.00000000
_cell_angle_gamma   90.00000000
_symmetry_Int_Tables_number   1
_chemical_formula_structural   Sr2MgGe2O7
_chemical_formula_sum   'Sr4 Mg2 Ge4 O14'
_cell_volume   366.94220273
_cell_formula_units_Z   2
loop_
 _symmetry_equiv_pos_site_id
 _symmetry_equiv_pos_as_xyz
  1  'x, y, z'
loop_
 _atom_site_type_symbol
 _atom_site_label
 _atom_site_symmetry_multiplicity
 _atom_site_fract_x
 _atom_site_fract_y
 _atom_site_fract_z
 _atom_site_occupancy
  Sr  Sr0  1  0.33486800  0.83486800  0.49186500  1
  Sr  Sr1  1  0.66513200  0.16513200  0.49186500  1
  Sr  Sr2  1  0.16513200  0.33486800  0.50813500  1
  Sr  Sr3  1  0.83486800  0.66513200  0.50813500  1
  Mg  Mg4  1  0.00000000  0.00000000  0.00000000  1
  Mg  Mg5  1  0.50000000  0.50000000  0.00000000  1
  Ge  Ge6  1  0.14326300  0.64326300  0.05046300  1
  Ge  Ge7  1  0.85673700  0.35673700  0.05046300  1
  Ge  Ge8  1  0.35673700  0.14326300  0.94953700  1
  Ge  Ge9  1  0.64326300  0.85673700  0.94953700  1
  O  O10  1  0.00000000  0.50000000  0.18432800  1
  O  O11  1  0.08236100  0.82200400  0.20667200  1
  O  O12  1  0.32200400  0.58236100  0.20667200  1
  O  O13  1  0.67799600  0.41763900  0.20667200  1
  O  O14  1  0.91763900  0.17799600  0.20667200  1
  O  O15  1  0.36107100  0.13892900  0.27380900  1
  O  O16  1  0.63892900  0.86107100  0.27380900  1
  O  O17  1  0.13892900  0.63892900  0.72619100  1
  O  O18  1  0.86107100  0.36107100  0.72619100  1
  O  O19  1  0.17799600  0.08236100  0.79332800  1
  O  O20  1  0.41763900  0.32200400  0.79332800  1
  O  O21  1  0.58236100  0.67799600  0.79332800  1
  O  O22  1  0.82200400  0.91763900  0.79332800  1
  O  O23  1  0.50000000  0.00000000  0.81567200  1
