# generated using pymatgen
data_V2B3
_symmetry_space_group_name_H-M   'P 1'
_cell_length_a   9.32356644
_cell_length_b   9.32356644
_cell_length_c   2.97819200
_cell_angle_alpha   90.00000000
_cell_angle_beta   90.00000000
_cell_angle_gamma   161.24964833
_symmetry_Int_Tables_number   1
_chemical_formula_structural   V2B3
_chemical_formula_sum   'V4 B6'
_cell_volume   83.21926625
_cell_formula_units_Z   2
loop_
 _symmetry_equiv_pos_site_id
 _symmetry_equiv_pos_as_xyz
  1  'x, y, z'
loop_
 _atom_site_type_symbol
 _atom_site_label
 _atom_site_symmetry_multiplicity
 _atom_site_fract_x
 _atom_site_fract_y
 _atom_site_fract_z
 _atom_site_occupancy
  V  V0  1  0.57064700  0.42935300  0.75000000  1
  V  V1  1  0.42935300  0.57064700  0.25000000  1
  V  V2  1  0.29497700  0.70502300  0.75000000  1
  V  V3  1  0.70502300  0.29497700  0.25000000  1
  B  B4  1  0.97636400  0.02363600  0.75000000  1
  B  B5  1  0.02363600  0.97636400  0.25000000  1
  B  B6  1  0.88211200  0.11788800  0.75000000  1
  B  B7  1  0.11788800  0.88211200  0.25000000  1
  B  B8  1  0.16898300  0.83101700  0.75000000  1
  B  B9  1  0.83101700  0.16898300  0.25000000  1
