# generated using pymatgen
data_WCl4
_symmetry_space_group_name_H-M   'P 1'
_cell_length_a   7.08616609
_cell_length_b   7.08616609
_cell_length_c   8.51403499
_cell_angle_alpha   54.50319139
_cell_angle_beta   54.50319139
_cell_angle_gamma   54.77885193
_symmetry_Int_Tables_number   1
_chemical_formula_structural   WCl4
_chemical_formula_sum   'W2 Cl8'
_cell_volume   264.22028210
_cell_formula_units_Z   2
loop_
 _symmetry_equiv_pos_site_id
 _symmetry_equiv_pos_as_xyz
  1  'x, y, z'
loop_
 _atom_site_type_symbol
 _atom_site_label
 _atom_site_symmetry_multiplicity
 _atom_site_fract_x
 _atom_site_fract_y
 _atom_site_fract_z
 _atom_site_occupancy
  W  W0  1  0.79530400  0.20469600  0.00000000  1
  W  W1  1  0.20469600  0.79530400  0.00000000  1
  Cl  Cl2  1  0.67178100  0.67178100  0.85090300  1
  Cl  Cl3  1  0.20581800  0.20581800  0.82141700  1
  Cl  Cl4  1  0.78452700  0.25847200  0.71011500  1
  Cl  Cl5  1  0.25847200  0.78452700  0.71011500  1
  Cl  Cl6  1  0.74152800  0.21547300  0.28988500  1
  Cl  Cl7  1  0.21547300  0.74152800  0.28988500  1
  Cl  Cl8  1  0.79418200  0.79418200  0.17858300  1
  Cl  Cl9  1  0.32821900  0.32821900  0.14909700  1
