# generated using pymatgen
data_Yb
_symmetry_space_group_name_H-M   'P 1'
_cell_length_a   9.70452293
_cell_length_b   9.70452293
_cell_length_c   9.70452294
_cell_angle_alpha   23.05683537
_cell_angle_beta   23.05683537
_cell_angle_gamma   23.05683423
_symmetry_Int_Tables_number   1
_chemical_formula_structural   Yb
_chemical_formula_sum   Yb3
_cell_volume   123.04245653
_cell_formula_units_Z   3
loop_
 _symmetry_equiv_pos_site_id
 _symmetry_equiv_pos_as_xyz
  1  'x, y, z'
loop_
 _atom_site_type_symbol
 _atom_site_label
 _atom_site_symmetry_multiplicity
 _atom_site_fract_x
 _atom_site_fract_y
 _atom_site_fract_z
 _atom_site_occupancy
  Yb  Yb0  1  0.00000000  0.00000000  0.00000000  1
  Yb  Yb1  1  0.22241600  0.22241600  0.22241600  1
  Yb  Yb2  1  0.77758400  0.77758400  0.77758400  1
