# generated using pymatgen
data_Na4SnO4
_symmetry_space_group_name_H-M   'P 1'
_cell_length_a   5.95337800
_cell_length_b   5.96644429
_cell_length_c   8.96496265
_cell_angle_alpha   82.35887214
_cell_angle_beta   71.11966724
_cell_angle_gamma   68.56214241
_symmetry_Int_Tables_number   1
_chemical_formula_structural   Na4SnO4
_chemical_formula_sum   'Na8 Sn2 O8'
_cell_volume   280.42164800
_cell_formula_units_Z   2
loop_
 _symmetry_equiv_pos_site_id
 _symmetry_equiv_pos_as_xyz
  1  'x, y, z'
loop_
 _atom_site_type_symbol
 _atom_site_label
 _atom_site_symmetry_multiplicity
 _atom_site_fract_x
 _atom_site_fract_y
 _atom_site_fract_z
 _atom_site_occupancy
  Na  Na0  1  0.25536100  0.24316200  0.00758200  1
  Na  Na1  1  0.74463900  0.75683800  0.99241800  1
  Na  Na2  1  0.01841200  0.26389500  0.43581100  1
  Na  Na3  1  0.98158800  0.73610500  0.56418900  1
  Na  Na4  1  0.43606200  0.24907300  0.59536800  1
  Na  Na5  1  0.56393800  0.75092700  0.40463200  1
  Na  Na6  1  0.11276600  0.71989400  0.19462500  1
  Na  Na7  1  0.88723400  0.28010600  0.80537500  1
  Sn  Sn8  1  0.34097900  0.72191900  0.76511600  1
  Sn  Sn9  1  0.65902100  0.27808100  0.23488400  1
  O  O10  1  0.12671600  0.51700100  0.80490400  1
  O  O11  1  0.87328400  0.48299900  0.19509600  1
  O  O12  1  0.79927700  0.01456700  0.37874300  1
  O  O13  1  0.20072300  0.98543300  0.62125700  1
  O  O14  1  0.32086100  0.47735800  0.37099500  1
  O  O15  1  0.67913900  0.52264200  0.62900500  1
  O  O16  1  0.35103500  0.84049600  0.95687900  1
  O  O17  1  0.64896500  0.15950400  0.04312100  1
