# generated using pymatgen
data_Pr2Ge5Rh3
_symmetry_space_group_name_H-M   'P 1'
_cell_length_a   8.50885647
_cell_length_b   8.50885647
_cell_length_c   8.50885647
_cell_angle_alpha   138.04025076
_cell_angle_beta   106.39584272
_cell_angle_gamma   88.51664356
_symmetry_Int_Tables_number   1
_chemical_formula_structural   Pr2Ge5Rh3
_chemical_formula_sum   'Pr4 Ge10 Rh6'
_cell_volume   378.53392040
_cell_formula_units_Z   2
loop_
 _symmetry_equiv_pos_site_id
 _symmetry_equiv_pos_as_xyz
  1  'x, y, z'
loop_
 _atom_site_type_symbol
 _atom_site_label
 _atom_site_symmetry_multiplicity
 _atom_site_fract_x
 _atom_site_fract_y
 _atom_site_fract_z
 _atom_site_occupancy
  Pr  Pr0  1  0.86489000  0.63330600  0.23158400  1
  Pr  Pr1  1  0.13511000  0.36669400  0.76841600  1
  Pr  Pr2  1  0.59827800  0.86669400  0.73158400  1
  Pr  Pr3  1  0.40172200  0.13330600  0.26841600  1
  Ge  Ge4  1  0.50000000  0.75000000  0.25000000  1
  Ge  Ge5  1  0.50000000  0.25000000  0.75000000  1
  Ge  Ge6  1  0.22175700  0.97175700  0.75000000  1
  Ge  Ge7  1  0.77824300  0.52824300  0.75000000  1
  Ge  Ge8  1  0.77824300  0.02824300  0.25000000  1
  Ge  Ge9  1  0.22175700  0.47175700  0.25000000  1
  Ge  Ge10  1  0.06163100  0.90061000  0.16102200  1
  Ge  Ge11  1  0.93836900  0.09939000  0.83897800  1
  Ge  Ge12  1  0.26041200  0.59939000  0.66102200  1
  Ge  Ge13  1  0.73958800  0.40061000  0.33897800  1
  Rh  Rh14  1  0.25402500  0.85922100  0.39480400  1
  Rh  Rh15  1  0.74597500  0.14077900  0.60519600  1
  Rh  Rh16  1  0.53558400  0.64077900  0.89480400  1
  Rh  Rh17  1  0.46441600  0.35922100  0.10519600  1
  Rh  Rh18  1  0.00000000  0.75000000  0.75000000  1
  Rh  Rh19  1  0.00000000  0.25000000  0.25000000  1
