# generated using pymatgen
data_Sm(CuO2)2
_symmetry_space_group_name_H-M   'P 1'
_cell_length_a   6.35125532
_cell_length_b   6.35125532
_cell_length_c   6.35125532
_cell_angle_alpha   125.78840702
_cell_angle_beta   125.78840702
_cell_angle_gamma   80.23618627
_symmetry_Int_Tables_number   1
_chemical_formula_structural   Sm(CuO2)2
_chemical_formula_sum   'Sm2 Cu4 O8'
_cell_volume   162.69495453
_cell_formula_units_Z   2
loop_
 _symmetry_equiv_pos_site_id
 _symmetry_equiv_pos_as_xyz
  1  'x, y, z'
loop_
 _atom_site_type_symbol
 _atom_site_label
 _atom_site_symmetry_multiplicity
 _atom_site_fract_x
 _atom_site_fract_y
 _atom_site_fract_z
 _atom_site_occupancy
  Sm  Sm0  1  0.00000000  0.00000000  0.00000000  1
  Sm  Sm1  1  0.75000000  0.25000000  0.50000000  1
  Cu  Cu2  1  0.87500000  0.62500000  0.25000000  1
  Cu  Cu3  1  0.37500000  0.62500000  0.75000000  1
  Cu  Cu4  1  0.37500000  0.12500000  0.75000000  1
  Cu  Cu5  1  0.37500000  0.62500000  0.25000000  1
  O  O6  1  0.40543700  0.83703200  0.14004000  1
  O  O7  1  0.69699200  0.26539700  0.85996000  1
  O  O8  1  0.34456300  0.41296800  0.35996000  1
  O  O9  1  0.05300800  0.98460300  0.64004000  1
  O  O10  1  0.01539700  0.65543700  0.06840600  1
  O  O11  1  0.58703200  0.94699200  0.93159400  1
  O  O12  1  0.16296800  0.30300800  0.56840600  1
  O  O13  1  0.73460300  0.59456300  0.43159400  1
