# generated using pymatgen
data_Hf(VH2)2
_symmetry_space_group_name_H-M   'P 1'
_cell_length_a   5.49184063
_cell_length_b   5.49184063
_cell_length_c   5.49184063
_cell_angle_alpha   121.11079398
_cell_angle_beta   121.11079398
_cell_angle_gamma   88.08658041
_symmetry_Int_Tables_number   1
_chemical_formula_structural   Hf(VH2)2
_chemical_formula_sum   'Hf2 V4 H8'
_cell_volume   115.08596558
_cell_formula_units_Z   2
loop_
 _symmetry_equiv_pos_site_id
 _symmetry_equiv_pos_as_xyz
  1  'x, y, z'
loop_
 _atom_site_type_symbol
 _atom_site_label
 _atom_site_symmetry_multiplicity
 _atom_site_fract_x
 _atom_site_fract_y
 _atom_site_fract_z
 _atom_site_occupancy
  Hf  Hf0  1  0.00000000  0.00000000  0.00000000  1
  Hf  Hf1  1  0.75000000  0.25000000  0.50000000  1
  V  V2  1  0.37500000  0.62500000  0.75000000  1
  V  V3  1  0.87500000  0.62500000  0.25000000  1
  V  V4  1  0.37500000  0.12500000  0.75000000  1
  V  V5  1  0.37500000  0.62500000  0.25000000  1
  H  H6  1  0.62879200  0.99241000  0.99892700  1
  H  H7  1  0.37013500  0.37120800  0.36361800  1
  H  H8  1  0.75651800  0.62013500  0.49892700  1
  H  H9  1  0.00759000  0.00651800  0.63638200  1
  H  H10  1  0.74241000  0.24348200  0.86361800  1
  H  H11  1  0.99348200  0.62986500  0.00107300  1
  H  H12  1  0.37986500  0.87879200  0.13638200  1
  H  H13  1  0.12120800  0.25759000  0.50107300  1
