# generated using pymatgen
data_Ho2Se3
_symmetry_space_group_name_H-M   'P 1'
_cell_length_a   13.51281272
_cell_length_b   12.89799557
_cell_length_c   7.07352878
_cell_angle_alpha   79.32599562
_cell_angle_beta   69.71593288
_cell_angle_gamma   30.95807149
_symmetry_Int_Tables_number   1
_chemical_formula_structural   Ho2Se3
_chemical_formula_sum   'Ho8 Se12'
_cell_volume   578.58651175
_cell_formula_units_Z   4
loop_
 _symmetry_equiv_pos_site_id
 _symmetry_equiv_pos_as_xyz
  1  'x, y, z'
loop_
 _atom_site_type_symbol
 _atom_site_label
 _atom_site_symmetry_multiplicity
 _atom_site_fract_x
 _atom_site_fract_y
 _atom_site_fract_z
 _atom_site_occupancy
  Ho  Ho0  1  0.50275000  0.50275000  0.99725000  1
  Ho  Ho1  1  0.99725000  0.99725000  0.50275000  1
  Ho  Ho2  1  0.74725000  0.74725000  0.25275000  1
  Ho  Ho3  1  0.25275000  0.25275000  0.74725000  1
  Ho  Ho4  1  0.16610000  0.16610000  0.33390000  1
  Ho  Ho5  1  0.33390000  0.33390000  0.16610000  1
  Ho  Ho6  1  0.08390000  0.08390000  0.91610000  1
  Ho  Ho7  1  0.91610000  0.91610000  0.08390000  1
  Se  Se8  1  0.17387700  0.66423800  0.31963000  1
  Se  Se9  1  0.84225500  0.31963000  0.66423800  1
  Se  Se10  1  0.31963000  0.84225500  0.17387700  1
  Se  Se11  1  0.66423800  0.17387700  0.84225500  1
  Se  Se12  1  0.07612300  0.58576200  0.93037000  1
  Se  Se13  1  0.40774500  0.93037000  0.58576200  1
  Se  Se14  1  0.93037000  0.40774500  0.07612300  1
  Se  Se15  1  0.58576200  0.07612300  0.40774500  1
  Se  Se16  1  0.24186200  0.75813800  0.75813800  1
  Se  Se17  1  0.75813800  0.24186200  0.24186200  1
  Se  Se18  1  0.00813800  0.49186200  0.49186200  1
  Se  Se19  1  0.49186200  0.00813800  0.00813800  1
