# generated using pymatgen
data_Ba4Nd4Zn3PtO15
_symmetry_space_group_name_H-M   'P 1'
_cell_length_a   11.88159962
_cell_length_b   11.88159962
_cell_length_c   6.87062400
_cell_angle_alpha   90.00000000
_cell_angle_beta   90.00000000
_cell_angle_gamma   119.99999789
_symmetry_Int_Tables_number   1
_chemical_formula_structural   Ba4Nd4Zn3PtO15
_chemical_formula_sum   'Ba8 Nd8 Zn6 Pt2 O30'
_cell_volume   839.99490223
_cell_formula_units_Z   2
loop_
 _symmetry_equiv_pos_site_id
 _symmetry_equiv_pos_as_xyz
  1  'x, y, z'
loop_
 _atom_site_type_symbol
 _atom_site_label
 _atom_site_symmetry_multiplicity
 _atom_site_fract_x
 _atom_site_fract_y
 _atom_site_fract_z
 _atom_site_occupancy
  Ba  Ba0  1  0.34615700  0.17307900  0.15853300  1
  Ba  Ba1  1  0.17307900  0.34615700  0.65853300  1
  Ba  Ba2  1  0.17307900  0.82692100  0.65853300  1
  Ba  Ba3  1  0.82692100  0.17307900  0.15853300  1
  Ba  Ba4  1  0.65384300  0.82692100  0.65853300  1
  Ba  Ba5  1  0.82692100  0.65384300  0.15853300  1
  Ba  Ba6  1  0.33333300  0.66666700  0.33894000  1
  Ba  Ba7  1  0.66666700  0.33333300  0.83894000  1
  Nd  Nd8  1  0.00000000  0.00000000  0.34141900  1
  Nd  Nd9  1  0.52302100  0.47697900  0.50029200  1
  Nd  Nd10  1  0.47697900  0.95395800  0.00029200  1
  Nd  Nd11  1  0.52302100  0.04604200  0.50029200  1
  Nd  Nd12  1  0.95395800  0.47697900  0.50029200  1
  Nd  Nd13  1  0.00000000  0.00000000  0.84141900  1
  Nd  Nd14  1  0.04604200  0.52302100  0.00029200  1
  Nd  Nd15  1  0.47697900  0.52302100  0.00029200  1
  Zn  Zn16  1  0.65729500  0.82864700  0.17558700  1
  Zn  Zn17  1  0.82864700  0.65729500  0.67558700  1
  Zn  Zn18  1  0.82864700  0.17135300  0.67558700  1
  Zn  Zn19  1  0.17135300  0.82864700  0.17558700  1
  Zn  Zn20  1  0.17135300  0.34270500  0.17558700  1
  Zn  Zn21  1  0.34270500  0.17135300  0.67558700  1
  Pt  Pt22  1  0.33333300  0.66666700  0.81573800  1
  Pt  Pt23  1  0.66666700  0.33333300  0.31573800  1
  O  O24  1  0.83298400  0.91649200  0.07077300  1
  O  O25  1  0.91649200  0.83298400  0.57077300  1
  O  O26  1  0.91649200  0.08350800  0.57077300  1
  O  O27  1  0.08350800  0.91649200  0.07077300  1
  O  O28  1  0.08350800  0.16701600  0.07077300  1
  O  O29  1  0.16701600  0.08350800  0.57077300  1
  O  O30  1  0.60504900  0.66182800  0.29996000  1
  O  O31  1  0.33817200  0.94322100  0.29996000  1
  O  O32  1  0.05677900  0.39495100  0.29996000  1
  O  O33  1  0.94322100  0.60504900  0.79996000  1
  O  O34  1  0.39495100  0.33817200  0.79996000  1
  O  O35  1  0.66182800  0.05677900  0.79996000  1
  O  O36  1  0.60504900  0.94322100  0.29996000  1
  O  O37  1  0.66182800  0.60504900  0.79996000  1
  O  O38  1  0.94322100  0.33817200  0.79996000  1
  O  O39  1  0.05677900  0.66182800  0.29996000  1
  O  O40  1  0.33817200  0.39495100  0.29996000  1
  O  O41  1  0.39495100  0.05677900  0.79996000  1
  O  O42  1  0.49778200  0.74889100  0.98835200  1
  O  O43  1  0.74889100  0.49778200  0.48835200  1
  O  O44  1  0.74889100  0.25110900  0.48835200  1
  O  O45  1  0.25110900  0.74889100  0.98835200  1
  O  O46  1  0.25110900  0.50221800  0.98835200  1
  O  O47  1  0.50221800  0.25110900  0.48835200  1
  O  O48  1  0.83323900  0.41661900  0.15551900  1
  O  O49  1  0.41661900  0.83323900  0.65551900  1
  O  O50  1  0.41661900  0.58338100  0.65551900  1
  O  O51  1  0.58338100  0.41661900  0.15551900  1
  O  O52  1  0.58338100  0.16676100  0.15551900  1
  O  O53  1  0.16676100  0.58338100  0.65551900  1
