# generated using pymatgen
data_LiBeP
_symmetry_space_group_name_H-M   'P 1'
_cell_length_a   3.60609200
_cell_length_b   3.60609200
_cell_length_c   6.00818200
_cell_angle_alpha   90.00000000
_cell_angle_beta   90.00000000
_cell_angle_gamma   90.00000000
_symmetry_Int_Tables_number   1
_chemical_formula_structural   LiBeP
_chemical_formula_sum   'Li2 Be2 P2'
_cell_volume   78.12979498
_cell_formula_units_Z   2
loop_
 _symmetry_equiv_pos_site_id
 _symmetry_equiv_pos_as_xyz
  1  'x, y, z'
loop_
 _atom_site_type_symbol
 _atom_site_label
 _atom_site_symmetry_multiplicity
 _atom_site_fract_x
 _atom_site_fract_y
 _atom_site_fract_z
 _atom_site_occupancy
  Li  Li0  1  0.50000000  0.00000000  0.35199100  1
  Li  Li1  1  0.00000000  0.50000000  0.64800900  1
  Be  Be2  1  0.50000000  0.50000000  0.00000000  1
  Be  Be3  1  0.00000000  0.00000000  0.00000000  1
  P  P4  1  0.50000000  0.00000000  0.78209500  1
  P  P5  1  0.00000000  0.50000000  0.21790500  1
