# generated using pymatgen
data_K2NiP2
_symmetry_space_group_name_H-M   'P 1'
_cell_length_a   7.62269558
_cell_length_b   7.62269558
_cell_length_c   5.61145700
_cell_angle_alpha   90.00000000
_cell_angle_beta   90.00000000
_cell_angle_gamma   130.18088719
_symmetry_Int_Tables_number   1
_chemical_formula_structural   K2NiP2
_chemical_formula_sum   'K4 Ni2 P4'
_cell_volume   249.11080946
_cell_formula_units_Z   2
loop_
 _symmetry_equiv_pos_site_id
 _symmetry_equiv_pos_as_xyz
  1  'x, y, z'
loop_
 _atom_site_type_symbol
 _atom_site_label
 _atom_site_symmetry_multiplicity
 _atom_site_fract_x
 _atom_site_fract_y
 _atom_site_fract_z
 _atom_site_occupancy
  K  K0  1  0.58335800  0.41664200  0.75000000  1
  K  K1  1  0.21313300  0.78686700  0.75000000  1
  K  K2  1  0.41664200  0.58335800  0.25000000  1
  K  K3  1  0.78686700  0.21313300  0.25000000  1
  Ni  Ni4  1  0.00000000  0.00000000  0.00000000  1
  Ni  Ni5  1  0.00000000  0.00000000  0.50000000  1
  P  P6  1  0.06972800  0.27043400  0.75000000  1
  P  P7  1  0.27043400  0.06972800  0.25000000  1
  P  P8  1  0.93027200  0.72956600  0.25000000  1
  P  P9  1  0.72956600  0.93027200  0.75000000  1
