# generated using pymatgen
data_SmTe3
_symmetry_space_group_name_H-M   'P 1'
_cell_length_a   13.81087013
_cell_length_b   13.81087013
_cell_length_c   4.37260200
_cell_angle_alpha   90.00000000
_cell_angle_beta   90.00000000
_cell_angle_gamma   161.78663519
_symmetry_Int_Tables_number   1
_chemical_formula_structural   SmTe3
_chemical_formula_sum   'Sm2 Te6'
_cell_volume   260.68171378
_cell_formula_units_Z   2
loop_
 _symmetry_equiv_pos_site_id
 _symmetry_equiv_pos_as_xyz
  1  'x, y, z'
loop_
 _atom_site_type_symbol
 _atom_site_label
 _atom_site_symmetry_multiplicity
 _atom_site_fract_x
 _atom_site_fract_y
 _atom_site_fract_z
 _atom_site_occupancy
  Sm  Sm0  1  0.17239100  0.82760900  0.75000000  1
  Sm  Sm1  1  0.82760900  0.17239100  0.25000000  1
  Te  Te2  1  0.29252200  0.70747800  0.75000000  1
  Te  Te3  1  0.70747800  0.29252200  0.25000000  1
  Te  Te4  1  0.92095500  0.07904500  0.75000000  1
  Te  Te5  1  0.07904500  0.92095500  0.25000000  1
  Te  Te6  1  0.42098100  0.57901900  0.25000000  1
  Te  Te7  1  0.57901900  0.42098100  0.75000000  1
