# generated using pymatgen
data_EuNiGe3
_symmetry_space_group_name_H-M   'P 1'
_cell_length_a   5.86383472
_cell_length_b   5.86383472
_cell_length_c   5.86383472
_cell_angle_alpha   136.39496141
_cell_angle_beta   136.39496141
_cell_angle_gamma   63.37030621
_symmetry_Int_Tables_number   1
_chemical_formula_structural   EuNiGe3
_chemical_formula_sum   'Eu1 Ni1 Ge3'
_cell_volume   94.66988359
_cell_formula_units_Z   1
loop_
 _symmetry_equiv_pos_site_id
 _symmetry_equiv_pos_as_xyz
  1  'x, y, z'
loop_
 _atom_site_type_symbol
 _atom_site_label
 _atom_site_symmetry_multiplicity
 _atom_site_fract_x
 _atom_site_fract_y
 _atom_site_fract_z
 _atom_site_occupancy
  Eu  Eu0  1  0.00084000  0.00084000  0.00000000  1
  Ni  Ni1  1  0.34667800  0.34667800  0.00000000  1
  Ge  Ge2  1  0.24782000  0.74782000  0.50000000  1
  Ge  Ge3  1  0.74782000  0.24782000  0.50000000  1
  Ge  Ge4  1  0.58234200  0.58234200  0.00000000  1
