# generated using pymatgen
data_Tc7B3
_symmetry_space_group_name_H-M   'P 1'
_cell_length_a   7.51703005
_cell_length_b   7.51703005
_cell_length_c   4.86651300
_cell_angle_alpha   90.00000000
_cell_angle_beta   90.00000000
_cell_angle_gamma   120.00000045
_symmetry_Int_Tables_number   1
_chemical_formula_structural   Tc7B3
_chemical_formula_sum   'Tc14 B6'
_cell_volume   238.14479316
_cell_formula_units_Z   2
loop_
 _symmetry_equiv_pos_site_id
 _symmetry_equiv_pos_as_xyz
  1  'x, y, z'
loop_
 _atom_site_type_symbol
 _atom_site_label
 _atom_site_symmetry_multiplicity
 _atom_site_fract_x
 _atom_site_fract_y
 _atom_site_fract_z
 _atom_site_occupancy
  Tc  Tc0  1  0.54564700  0.45435300  0.04891500  1
  Tc  Tc1  1  0.45435300  0.54564700  0.54891500  1
  Tc  Tc2  1  0.54564700  0.09129300  0.04891500  1
  Tc  Tc3  1  0.90870700  0.45435300  0.04891500  1
  Tc  Tc4  1  0.09129300  0.54564700  0.54891500  1
  Tc  Tc5  1  0.45435300  0.90870700  0.54891500  1
  Tc  Tc6  1  0.12364100  0.87635900  0.25431500  1
  Tc  Tc7  1  0.87635900  0.12364100  0.75431500  1
  Tc  Tc8  1  0.12364100  0.24728200  0.25431500  1
  Tc  Tc9  1  0.75271800  0.87635900  0.25431500  1
  Tc  Tc10  1  0.24728200  0.12364100  0.75431500  1
  Tc  Tc11  1  0.87635900  0.75271800  0.75431500  1
  Tc  Tc12  1  0.33333300  0.66666700  0.08282900  1
  Tc  Tc13  1  0.66666700  0.33333300  0.58282900  1
  B  B14  1  0.81055800  0.62111600  0.33982000  1
  B  B15  1  0.18944200  0.81055800  0.83982000  1
  B  B16  1  0.81055800  0.18944200  0.33982000  1
  B  B17  1  0.37888400  0.18944200  0.33982000  1
  B  B18  1  0.62111600  0.81055800  0.83982000  1
  B  B19  1  0.18944200  0.37888400  0.83982000  1
