# generated using pymatgen
data_NdNi
_symmetry_space_group_name_H-M   'P 1'
_cell_length_a   5.63003577
_cell_length_b   5.63003577
_cell_length_c   4.30519000
_cell_angle_alpha   90.00000000
_cell_angle_beta   90.00000000
_cell_angle_gamma   140.46985683
_symmetry_Int_Tables_number   1
_chemical_formula_structural   NdNi
_chemical_formula_sum   'Nd2 Ni2'
_cell_volume   86.85647050
_cell_formula_units_Z   2
loop_
 _symmetry_equiv_pos_site_id
 _symmetry_equiv_pos_as_xyz
  1  'x, y, z'
loop_
 _atom_site_type_symbol
 _atom_site_label
 _atom_site_symmetry_multiplicity
 _atom_site_fract_x
 _atom_site_fract_y
 _atom_site_fract_z
 _atom_site_occupancy
  Nd  Nd0  1  0.86222200  0.13777800  0.75000000  1
  Nd  Nd1  1  0.13777800  0.86222200  0.25000000  1
  Ni  Ni2  1  0.57338000  0.42662000  0.75000000  1
  Ni  Ni3  1  0.42662000  0.57338000  0.25000000  1
