# generated using pymatgen
data_Ho3ReB7
_symmetry_space_group_name_H-M   'P 1'
_cell_length_a   8.05173006
_cell_length_b   8.05173006
_cell_length_c   9.32976900
_cell_angle_alpha   90.00000000
_cell_angle_beta   90.00000000
_cell_angle_gamma   154.72688220
_symmetry_Int_Tables_number   1
_chemical_formula_structural   Ho3ReB7
_chemical_formula_sum   'Ho6 Re2 B14'
_cell_volume   258.23177266
_cell_formula_units_Z   2
loop_
 _symmetry_equiv_pos_site_id
 _symmetry_equiv_pos_as_xyz
  1  'x, y, z'
loop_
 _atom_site_type_symbol
 _atom_site_label
 _atom_site_symmetry_multiplicity
 _atom_site_fract_x
 _atom_site_fract_y
 _atom_site_fract_z
 _atom_site_occupancy
  Ho  Ho0  1  0.89450200  0.10549800  0.06001900  1
  Ho  Ho1  1  0.10549800  0.89450200  0.56001900  1
  Ho  Ho2  1  0.10549800  0.89450200  0.93998100  1
  Ho  Ho3  1  0.89450200  0.10549800  0.43998100  1
  Ho  Ho4  1  0.24273500  0.75726500  0.25000000  1
  Ho  Ho5  1  0.75726500  0.24273500  0.75000000  1
  Re  Re6  1  0.05256300  0.94743700  0.25000000  1
  Re  Re7  1  0.94743600  0.05256300  0.75000000  1
  B  B8  1  0.45648500  0.54351500  0.25000000  1
  B  B9  1  0.54351500  0.45648500  0.75000000  1
  B  B10  1  0.72720500  0.27279500  0.03346300  1
  B  B11  1  0.27279500  0.72720500  0.53346300  1
  B  B12  1  0.27279500  0.72720500  0.96653700  1
  B  B13  1  0.72720500  0.27279500  0.46653700  1
  B  B14  1  0.63219400  0.36780600  0.34953200  1
  B  B15  1  0.36780600  0.63219400  0.84953200  1
  B  B16  1  0.36780600  0.63219400  0.65046800  1
  B  B17  1  0.63219400  0.36780600  0.15046800  1
  B  B18  1  0.52054600  0.47945400  0.40489400  1
  B  B19  1  0.47945400  0.52054600  0.90489400  1
  B  B20  1  0.47945400  0.52054600  0.59510600  1
  B  B21  1  0.52054600  0.47945400  0.09510600  1
