# generated using pymatgen
data_NbP
_symmetry_space_group_name_H-M   'P 1'
_cell_length_a   6.19119820
_cell_length_b   6.19119820
_cell_length_c   6.19119820
_cell_angle_alpha   148.54466349
_cell_angle_beta   148.54466349
_cell_angle_gamma   45.08197213
_symmetry_Int_Tables_number   1
_chemical_formula_structural   NbP
_chemical_formula_sum   'Nb2 P2'
_cell_volume   64.41967042
_cell_formula_units_Z   2
loop_
 _symmetry_equiv_pos_site_id
 _symmetry_equiv_pos_as_xyz
  1  'x, y, z'
loop_
 _atom_site_type_symbol
 _atom_site_label
 _atom_site_symmetry_multiplicity
 _atom_site_fract_x
 _atom_site_fract_y
 _atom_site_fract_z
 _atom_site_occupancy
  Nb  Nb0  1  0.74992300  0.74992300  0.00000000  1
  Nb  Nb1  1  0.49992300  0.99992300  0.50000000  1
  P  P2  1  0.16744700  0.16744700  0.00000000  1
  P  P3  1  0.91744700  0.41744700  0.50000000  1
