# generated using pymatgen
data_Sm2Ge5Ir3
_symmetry_space_group_name_H-M   'P 1'
_cell_length_a   8.44349008
_cell_length_b   8.44349008
_cell_length_c   8.44349008
_cell_angle_alpha   137.69284965
_cell_angle_beta   104.92793105
_cell_angle_gamma   90.16323823
_symmetry_Int_Tables_number   1
_chemical_formula_structural   Sm2Ge5Ir3
_chemical_formula_sum   'Sm4 Ge10 Ir6'
_cell_volume   373.80396003
_cell_formula_units_Z   2
loop_
 _symmetry_equiv_pos_site_id
 _symmetry_equiv_pos_as_xyz
  1  'x, y, z'
loop_
 _atom_site_type_symbol
 _atom_site_label
 _atom_site_symmetry_multiplicity
 _atom_site_fract_x
 _atom_site_fract_y
 _atom_site_fract_z
 _atom_site_occupancy
  Sm  Sm0  1  0.86095700  0.63335900  0.22759800  1
  Sm  Sm1  1  0.13904300  0.36664100  0.77240200  1
  Sm  Sm2  1  0.59423900  0.86664100  0.72759800  1
  Sm  Sm3  1  0.40576100  0.13335900  0.27240200  1
  Ge  Ge4  1  0.50000000  0.75000000  0.25000000  1
  Ge  Ge5  1  0.50000000  0.25000000  0.75000000  1
  Ge  Ge6  1  0.22388200  0.97388200  0.75000000  1
  Ge  Ge7  1  0.77611800  0.52611800  0.75000000  1
  Ge  Ge8  1  0.77611800  0.02611800  0.25000000  1
  Ge  Ge9  1  0.22388200  0.47388200  0.25000000  1
  Ge  Ge10  1  0.06193400  0.90078000  0.16115500  1
  Ge  Ge11  1  0.93806600  0.09922000  0.83884500  1
  Ge  Ge12  1  0.26037500  0.59922000  0.66115500  1
  Ge  Ge13  1  0.73962500  0.40078000  0.33884500  1
  Ir  Ir14  1  0.53162900  0.64172400  0.88990500  1
  Ir  Ir15  1  0.46837100  0.35827600  0.11009500  1
  Ir  Ir16  1  0.00000000  0.75000000  0.75000000  1
  Ir  Ir17  1  0.00000000  0.25000000  0.25000000  1
  Ir  Ir18  1  0.24818100  0.85827600  0.38990500  1
  Ir  Ir19  1  0.75181900  0.14172400  0.61009500  1
