# generated using pymatgen
data_SmGa2Co
_symmetry_space_group_name_H-M   'P 1'
_cell_length_a   9.13276645
_cell_length_b   9.13276645
_cell_length_c   4.08913800
_cell_angle_alpha   90.00000000
_cell_angle_beta   90.00000000
_cell_angle_gamma   153.88622129
_symmetry_Int_Tables_number   1
_chemical_formula_structural   SmGa2Co
_chemical_formula_sum   'Sm2 Ga4 Co2'
_cell_volume   150.12126909
_cell_formula_units_Z   2
loop_
 _symmetry_equiv_pos_site_id
 _symmetry_equiv_pos_as_xyz
  1  'x, y, z'
loop_
 _atom_site_type_symbol
 _atom_site_label
 _atom_site_symmetry_multiplicity
 _atom_site_fract_x
 _atom_site_fract_y
 _atom_site_fract_z
 _atom_site_occupancy
  Sm  Sm0  1  0.14250500  0.85749500  0.00000000  1
  Sm  Sm1  1  0.85749500  0.14250500  0.00000000  1
  Ga  Ga2  1  0.00000000  0.00000000  0.50000000  1
  Ga  Ga3  1  0.50000000  0.50000000  0.00000000  1
  Ga  Ga4  1  0.29194900  0.70805100  0.50000000  1
  Ga  Ga5  1  0.70805100  0.29194900  0.50000000  1
  Co  Co6  1  0.42668200  0.57331800  0.50000000  1
  Co  Co7  1  0.57331800  0.42668200  0.50000000  1
