# generated using pymatgen
data_CaAlH5
_symmetry_space_group_name_H-M   'P 1'
_cell_length_a   6.92599100
_cell_length_b   8.35098800
_cell_length_c   12.39634942
_cell_angle_alpha   51.33405400
_cell_angle_beta   90.00000000
_cell_angle_gamma   90.00000000
_symmetry_Int_Tables_number   1
_chemical_formula_structural   CaAlH5
_chemical_formula_sum   'Ca8 Al8 H40'
_cell_volume   559.82777976
_cell_formula_units_Z   8
loop_
 _symmetry_equiv_pos_site_id
 _symmetry_equiv_pos_as_xyz
  1  'x, y, z'
loop_
 _atom_site_type_symbol
 _atom_site_label
 _atom_site_symmetry_multiplicity
 _atom_site_fract_x
 _atom_site_fract_y
 _atom_site_fract_z
 _atom_site_occupancy
  Ca  Ca0  1  0.26954700  0.21347200  0.54522300  1
  Ca  Ca1  1  0.76954700  0.78652800  0.95477700  1
  Ca  Ca2  1  0.73045300  0.78652800  0.45477700  1
  Ca  Ca3  1  0.23045300  0.21347200  0.04522300  1
  Ca  Ca4  1  0.22942100  0.65464300  0.65291600  1
  Ca  Ca5  1  0.72942100  0.34535700  0.84708400  1
  Ca  Ca6  1  0.77057900  0.34535700  0.34708400  1
  Ca  Ca7  1  0.27057900  0.65464300  0.15291600  1
  Al  Al8  1  0.27871500  0.78081900  0.84504000  1
  Al  Al9  1  0.77871500  0.21918100  0.65496000  1
  Al  Al10  1  0.72128500  0.21918100  0.15496000  1
  Al  Al11  1  0.22128500  0.78081900  0.34504000  1
  Al  Al12  1  0.19123700  0.19228800  0.81124500  1
  Al  Al13  1  0.69123700  0.80771200  0.68875500  1
  Al  Al14  1  0.80876300  0.80771200  0.18875500  1
  Al  Al15  1  0.30876300  0.19228800  0.31124500  1
  H  H16  1  0.19738800  0.00067900  0.98468800  1
  H  H17  1  0.69738800  0.99932100  0.51531200  1
  H  H18  1  0.80261200  0.99932100  0.01531200  1
  H  H19  1  0.30261200  0.00067900  0.48468800  1
  H  H20  1  0.20806100  0.38791300  0.63880900  1
  H  H21  1  0.70806100  0.61208700  0.86119100  1
  H  H22  1  0.79193900  0.61208700  0.36119100  1
  H  H23  1  0.29193900  0.38791300  0.13880900  1
  H  H24  1  0.11396800  0.30664300  0.33570600  1
  H  H25  1  0.61396800  0.69335700  0.16429400  1
  H  H26  1  0.88603200  0.69335700  0.66429400  1
  H  H27  1  0.38603200  0.30664300  0.83570600  1
  H  H28  1  0.13891400  0.88454900  0.70092700  1
  H  H29  1  0.63891400  0.11545100  0.79907300  1
  H  H30  1  0.86108600  0.11545100  0.29907300  1
  H  H31  1  0.36108600  0.88454900  0.20092700  1
  H  H32  1  0.46755200  0.88813100  0.70963400  1
  H  H33  1  0.96755200  0.11186900  0.79036600  1
  H  H34  1  0.53244800  0.11186900  0.29036600  1
  H  H35  1  0.03244800  0.88813100  0.20963400  1
  H  H36  1  0.09741600  0.71992700  0.95898200  1
  H  H37  1  0.59741600  0.28007300  0.54101800  1
  H  H38  1  0.90258400  0.28007300  0.04101800  1
  H  H39  1  0.40258400  0.71992700  0.45898200  1
  H  H40  1  0.44413200  0.73082500  0.96379700  1
  H  H41  1  0.94413200  0.26917500  0.53620300  1
  H  H42  1  0.55586800  0.26917500  0.03620300  1
  H  H43  1  0.05586800  0.73082500  0.46379700  1
  H  H44  1  0.06367800  0.34802300  0.83682400  1
  H  H45  1  0.56367800  0.65197700  0.66317600  1
  H  H46  1  0.93632200  0.65197700  0.16317600  1
  H  H47  1  0.43632200  0.34802300  0.33682400  1
  H  H48  1  0.28934000  0.55694700  0.87082300  1
  H  H49  1  0.78934000  0.44305300  0.62917700  1
  H  H50  1  0.71066000  0.44305300  0.12917700  1
  H  H51  1  0.21066000  0.55694700  0.37082300  1
  H  H52  1  0.30538500  0.04363100  0.77801700  1
  H  H53  1  0.80538500  0.95636900  0.72198300  1
  H  H54  1  0.69461500  0.95636900  0.22198300  1
  H  H55  1  0.19461500  0.04363100  0.27801700  1
