# generated using pymatgen
data_La(CuO2)2
_symmetry_space_group_name_H-M   'P 1'
_cell_length_a   6.45246929
_cell_length_b   6.45246929
_cell_length_c   6.45246929
_cell_angle_alpha   125.35978911
_cell_angle_beta   125.35978911
_cell_angle_gamma   80.94294496
_symmetry_Int_Tables_number   1
_chemical_formula_structural   La(CuO2)2
_chemical_formula_sum   'La2 Cu4 O8'
_cell_volume   172.19484989
_cell_formula_units_Z   2
loop_
 _symmetry_equiv_pos_site_id
 _symmetry_equiv_pos_as_xyz
  1  'x, y, z'
loop_
 _atom_site_type_symbol
 _atom_site_label
 _atom_site_symmetry_multiplicity
 _atom_site_fract_x
 _atom_site_fract_y
 _atom_site_fract_z
 _atom_site_occupancy
  La  La0  1  0.00000000  0.00000000  0.00000000  1
  La  La1  1  0.75000000  0.25000000  0.50000000  1
  Cu  Cu2  1  0.37500000  0.62500000  0.25000000  1
  Cu  Cu3  1  0.37500000  0.12500000  0.75000000  1
  Cu  Cu4  1  0.37500000  0.62500000  0.75000000  1
  Cu  Cu5  1  0.87500000  0.62500000  0.25000000  1
  O  O6  1  0.72802500  0.30547500  0.13259500  1
  O  O7  1  0.17288000  0.59543000  0.86740500  1
  O  O8  1  0.02197500  0.94452500  0.36740500  1
  O  O9  1  0.57712000  0.65457000  0.63259500  1
  O  O10  1  0.05547500  0.42288000  0.07745000  1
  O  O11  1  0.34543000  0.97802500  0.92255000  1
  O  O12  1  0.40457000  0.27197500  0.57745000  1
  O  O13  1  0.69452500  0.82712000  0.42255000  1
