# generated using pymatgen
data_LaCoN3
_symmetry_space_group_name_H-M   'P 1'
_cell_length_a   5.77080117
_cell_length_b   5.77080117
_cell_length_c   7.51158005
_cell_angle_alpha   77.52341970
_cell_angle_beta   77.52341970
_cell_angle_gamma   41.29349826
_symmetry_Int_Tables_number   1
_chemical_formula_structural   LaCoN3
_chemical_formula_sum   'La2 Co2 N6'
_cell_volume   160.61960517
_cell_formula_units_Z   2
loop_
 _symmetry_equiv_pos_site_id
 _symmetry_equiv_pos_as_xyz
  1  'x, y, z'
loop_
 _atom_site_type_symbol
 _atom_site_label
 _atom_site_symmetry_multiplicity
 _atom_site_fract_x
 _atom_site_fract_y
 _atom_site_fract_z
 _atom_site_occupancy
  La  La0  1  0.16407800  0.16407800  0.19679400  1
  La  La1  1  0.83592200  0.83592200  0.80320600  1
  Co  Co2  1  0.45874100  0.45874100  0.15445400  1
  Co  Co3  1  0.54125900  0.54125900  0.84554600  1
  N  N4  1  0.63382800  0.63382800  0.02570900  1
  N  N5  1  0.36617200  0.36617200  0.97429100  1
  N  N6  1  0.39408200  0.39408200  0.38095100  1
  N  N7  1  0.64851500  0.64851500  0.45962000  1
  N  N8  1  0.60591800  0.60591800  0.61904900  1
  N  N9  1  0.35148500  0.35148500  0.54038000  1
