# generated using pymatgen
data_Ti6Al16Pt7
_symmetry_space_group_name_H-M   'P 1'
_cell_length_a   8.65868800
_cell_length_b   8.65868800
_cell_length_c   8.65868800
_cell_angle_alpha   60.00000000
_cell_angle_beta   60.00000000
_cell_angle_gamma   60.00000000
_symmetry_Int_Tables_number   1
_chemical_formula_structural   Ti6Al16Pt7
_chemical_formula_sum   'Ti6 Al16 Pt7'
_cell_volume   459.03021651
_cell_formula_units_Z   1
loop_
 _symmetry_equiv_pos_site_id
 _symmetry_equiv_pos_as_xyz
  1  'x, y, z'
loop_
 _atom_site_type_symbol
 _atom_site_label
 _atom_site_symmetry_multiplicity
 _atom_site_fract_x
 _atom_site_fract_y
 _atom_site_fract_z
 _atom_site_occupancy
  Ti  Ti0  1  0.17264400  0.82735600  0.82735600  1
  Ti  Ti1  1  0.82735600  0.17264400  0.17264400  1
  Ti  Ti2  1  0.82735600  0.17264400  0.82735600  1
  Ti  Ti3  1  0.82735600  0.82735600  0.17264400  1
  Ti  Ti4  1  0.17264400  0.82735600  0.17264400  1
  Ti  Ti5  1  0.17264400  0.17264400  0.82735600  1
  Al  Al6  1  0.84031200  0.84031200  0.84031200  1
  Al  Al7  1  0.84031200  0.84031200  0.47906400  1
  Al  Al8  1  0.47906400  0.84031200  0.84031200  1
  Al  Al9  1  0.84031200  0.47906400  0.84031200  1
  Al  Al10  1  0.15968800  0.15968800  0.15968800  1
  Al  Al11  1  0.15968800  0.15968800  0.52093600  1
  Al  Al12  1  0.15968800  0.52093600  0.15968800  1
  Al  Al13  1  0.52093600  0.15968800  0.15968800  1
  Al  Al14  1  0.62030300  0.62030300  0.62030300  1
  Al  Al15  1  0.62030300  0.62030300  0.13909200  1
  Al  Al16  1  0.13909200  0.62030300  0.62030300  1
  Al  Al17  1  0.62030300  0.13909200  0.62030300  1
  Al  Al18  1  0.37969700  0.37969700  0.37969700  1
  Al  Al19  1  0.37969700  0.37969700  0.86090800  1
  Al  Al20  1  0.37969700  0.86090800  0.37969700  1
  Al  Al21  1  0.86090800  0.37969700  0.37969700  1
  Pt  Pt22  1  0.00000000  0.50000000  0.50000000  1
  Pt  Pt23  1  0.50000000  0.00000000  0.00000000  1
  Pt  Pt24  1  0.50000000  0.00000000  0.50000000  1
  Pt  Pt25  1  0.50000000  0.50000000  0.00000000  1
  Pt  Pt26  1  0.00000000  0.50000000  0.00000000  1
  Pt  Pt27  1  0.00000000  0.00000000  0.50000000  1
  Pt  Pt28  1  0.50000000  0.50000000  0.50000000  1
