# generated using pymatgen
data_YbSi2Ni
_symmetry_space_group_name_H-M   'P 1'
_cell_length_a   8.68459855
_cell_length_b   8.68459855
_cell_length_c   3.84254500
_cell_angle_alpha   90.00000000
_cell_angle_beta   90.00000000
_cell_angle_gamma   152.86297031
_symmetry_Int_Tables_number   1
_chemical_formula_structural   YbSi2Ni
_chemical_formula_sum   'Yb2 Si4 Ni2'
_cell_volume   132.18972940
_cell_formula_units_Z   2
loop_
 _symmetry_equiv_pos_site_id
 _symmetry_equiv_pos_as_xyz
  1  'x, y, z'
loop_
 _atom_site_type_symbol
 _atom_site_label
 _atom_site_symmetry_multiplicity
 _atom_site_fract_x
 _atom_site_fract_y
 _atom_site_fract_z
 _atom_site_occupancy
  Yb  Yb0  1  0.89005300  0.10994700  0.25000000  1
  Yb  Yb1  1  0.10994700  0.89005300  0.75000000  1
  Si  Si2  1  0.54040100  0.45959900  0.25000000  1
  Si  Si3  1  0.45959900  0.54040100  0.75000000  1
  Si  Si4  1  0.24835300  0.75164700  0.25000000  1
  Si  Si5  1  0.75164700  0.24835300  0.75000000  1
  Ni  Ni6  1  0.67557000  0.32443000  0.25000000  1
  Ni  Ni7  1  0.32443000  0.67557000  0.75000000  1
