# generated using pymatgen
data_Tb2ReC2
_symmetry_space_group_name_H-M   'P 1'
_cell_length_a   5.15645300
_cell_length_b   6.59178900
_cell_length_c   9.90454000
_cell_angle_alpha   90.00000000
_cell_angle_beta   90.00000000
_cell_angle_gamma   90.00000000
_symmetry_Int_Tables_number   1
_chemical_formula_structural   Tb2ReC2
_chemical_formula_sum   'Tb8 Re4 C8'
_cell_volume   336.65779236
_cell_formula_units_Z   4
loop_
 _symmetry_equiv_pos_site_id
 _symmetry_equiv_pos_as_xyz
  1  'x, y, z'
loop_
 _atom_site_type_symbol
 _atom_site_label
 _atom_site_symmetry_multiplicity
 _atom_site_fract_x
 _atom_site_fract_y
 _atom_site_fract_z
 _atom_site_occupancy
  Tb  Tb0  1  0.75000000  0.81780500  0.05482100  1
  Tb  Tb1  1  0.25000000  0.68219500  0.55482100  1
  Tb  Tb2  1  0.75000000  0.31780500  0.44517900  1
  Tb  Tb3  1  0.25000000  0.18219500  0.94517900  1
  Tb  Tb4  1  0.75000000  0.47005100  0.78391900  1
  Tb  Tb5  1  0.25000000  0.02994900  0.28391900  1
  Tb  Tb6  1  0.75000000  0.97005100  0.71608100  1
  Tb  Tb7  1  0.25000000  0.52994900  0.21608100  1
  Re  Re8  1  0.75000000  0.27696400  0.13500600  1
  Re  Re9  1  0.25000000  0.22303600  0.63500600  1
  Re  Re10  1  0.75000000  0.77696400  0.36499400  1
  Re  Re11  1  0.25000000  0.72303600  0.86499400  1
  C  C12  1  0.75000000  0.17821200  0.95162000  1
  C  C13  1  0.25000000  0.82178800  0.04838000  1
  C  C14  1  0.75000000  0.67821200  0.54838000  1
  C  C15  1  0.25000000  0.32178800  0.45162000  1
  C  C16  1  0.75000000  0.04301800  0.25885600  1
  C  C17  1  0.25000000  0.45698200  0.75885600  1
  C  C18  1  0.75000000  0.54301800  0.24114400  1
  C  C19  1  0.25000000  0.95698200  0.74114400  1
