# generated using pymatgen
data_CoAuO2
_symmetry_space_group_name_H-M   'P 1'
_cell_length_a   6.37293164
_cell_length_b   6.37293164
_cell_length_c   6.37293146
_cell_angle_alpha   26.49800101
_cell_angle_beta   26.49800101
_cell_angle_gamma   26.49799714
_symmetry_Int_Tables_number   1
_chemical_formula_structural   CoAuO2
_chemical_formula_sum   'Co1 Au1 O2'
_cell_volume   45.41594835
_cell_formula_units_Z   1
loop_
 _symmetry_equiv_pos_site_id
 _symmetry_equiv_pos_as_xyz
  1  'x, y, z'
loop_
 _atom_site_type_symbol
 _atom_site_label
 _atom_site_symmetry_multiplicity
 _atom_site_fract_x
 _atom_site_fract_y
 _atom_site_fract_z
 _atom_site_occupancy
  Co  Co0  1  0.50000000  0.50000000  0.50000000  1
  Au  Au1  1  0.00000000  0.00000000  0.00000000  1
  O  O2  1  0.88514000  0.88514000  0.88514000  1
  O  O3  1  0.11486000  0.11486000  0.11486000  1
