# generated using pymatgen
data_Pr(BOs)2
_symmetry_space_group_name_H-M   'P 1'
_cell_length_a   6.83503807
_cell_length_b   6.04036163
_cell_length_c   5.66584048
_cell_angle_alpha   71.36641720
_cell_angle_beta   56.86769272
_cell_angle_gamma   51.76589008
_symmetry_Int_Tables_number   1
_chemical_formula_structural   Pr(BOs)2
_chemical_formula_sum   'Pr2 B4 Os4'
_cell_volume   153.80488540
_cell_formula_units_Z   2
loop_
 _symmetry_equiv_pos_site_id
 _symmetry_equiv_pos_as_xyz
  1  'x, y, z'
loop_
 _atom_site_type_symbol
 _atom_site_label
 _atom_site_symmetry_multiplicity
 _atom_site_fract_x
 _atom_site_fract_y
 _atom_site_fract_z
 _atom_site_occupancy
  Pr  Pr0  1  0.00000000  0.00000000  0.00000000  1
  Pr  Pr1  1  0.25000000  0.25000000  0.25000000  1
  B  B2  1  0.68394800  0.31605200  0.68394800  1
  B  B3  1  0.31605200  0.68394800  0.31605200  1
  B  B4  1  0.93394800  0.56605200  0.93394800  1
  B  B5  1  0.56605200  0.93394800  0.56605200  1
  Os  Os6  1  0.61363300  0.61363300  0.88636700  1
  Os  Os7  1  0.63636700  0.63636700  0.36363300  1
  Os  Os8  1  0.36363300  0.36363300  0.63636700  1
  Os  Os9  1  0.88636700  0.88636700  0.61363300  1
