# generated using pymatgen
data_Nb2AsC
_symmetry_space_group_name_H-M   'P 1'
_cell_length_a   3.34290505
_cell_length_b   3.34290505
_cell_length_c   12.06705400
_cell_angle_alpha   90.00000000
_cell_angle_beta   90.00000000
_cell_angle_gamma   120.00002080
_symmetry_Int_Tables_number   1
_chemical_formula_structural   Nb2AsC
_chemical_formula_sum   'Nb4 As2 C2'
_cell_volume   116.78306783
_cell_formula_units_Z   2
loop_
 _symmetry_equiv_pos_site_id
 _symmetry_equiv_pos_as_xyz
  1  'x, y, z'
loop_
 _atom_site_type_symbol
 _atom_site_label
 _atom_site_symmetry_multiplicity
 _atom_site_fract_x
 _atom_site_fract_y
 _atom_site_fract_z
 _atom_site_occupancy
  Nb  Nb0  1  0.33333300  0.66666700  0.40569400  1
  Nb  Nb1  1  0.66666700  0.33333300  0.90569400  1
  Nb  Nb2  1  0.66666700  0.33333300  0.59430600  1
  Nb  Nb3  1  0.33333300  0.66666700  0.09430600  1
  As  As4  1  0.66666700  0.33333300  0.25000000  1
  As  As5  1  0.33333300  0.66666700  0.75000000  1
  C  C6  1  0.00000000  0.00000000  0.50000000  1
  C  C7  1  0.00000000  0.00000000  0.00000000  1
