# generated using pymatgen
data_Mg6Bi2PN
_symmetry_space_group_name_H-M   'P 1'
_cell_length_a   6.61192075
_cell_length_b   6.61192075
_cell_length_c   6.61192075
_cell_angle_alpha   60.00000000
_cell_angle_beta   60.00000000
_cell_angle_gamma   60.00000000
_symmetry_Int_Tables_number   1
_chemical_formula_structural   Mg6Bi2PN
_chemical_formula_sum   'Mg6 Bi2 P1 N1'
_cell_volume   204.39389555
_cell_formula_units_Z   1
loop_
 _symmetry_equiv_pos_site_id
 _symmetry_equiv_pos_as_xyz
  1  'x, y, z'
loop_
 _atom_site_type_symbol
 _atom_site_label
 _atom_site_symmetry_multiplicity
 _atom_site_fract_x
 _atom_site_fract_y
 _atom_site_fract_z
 _atom_site_occupancy
  Mg  Mg0  1  0.23013300  0.76986700  0.76986700  1
  Mg  Mg1  1  0.23013300  0.76986700  0.23013300  1
  Mg  Mg2  1  0.76986700  0.23013300  0.76986700  1
  Mg  Mg3  1  0.76986700  0.76986700  0.23013300  1
  Mg  Mg4  1  0.23013300  0.23013300  0.76986700  1
  Mg  Mg5  1  0.76986700  0.23013300  0.23013300  1
  Bi  Bi6  1  0.25000000  0.25000000  0.25000000  1
  Bi  Bi7  1  0.75000000  0.75000000  0.75000000  1
  P  P8  1  0.50000000  0.50000000  0.50000000  1
  N  N9  1  0.00000000  0.00000000  0.00000000  1
