# generated using pymatgen
data_InPbCl3
_symmetry_space_group_name_H-M   'P 1'
_cell_length_a   7.33043574
_cell_length_b   7.33043574
_cell_length_c   10.68204200
_cell_angle_alpha   90.00000000
_cell_angle_beta   90.00000000
_cell_angle_gamma   145.91212678
_symmetry_Int_Tables_number   1
_chemical_formula_structural   InPbCl3
_chemical_formula_sum   'In2 Pb2 Cl6'
_cell_volume   321.70763555
_cell_formula_units_Z   2
loop_
 _symmetry_equiv_pos_site_id
 _symmetry_equiv_pos_as_xyz
  1  'x, y, z'
loop_
 _atom_site_type_symbol
 _atom_site_label
 _atom_site_symmetry_multiplicity
 _atom_site_fract_x
 _atom_site_fract_y
 _atom_site_fract_z
 _atom_site_occupancy
  In  In0  1  0.74755100  0.25244900  0.75000000  1
  In  In1  1  0.25244900  0.74755100  0.25000000  1
  Pb  Pb2  1  0.00000000  0.00000000  0.50000000  1
  Pb  Pb3  1  0.00000000  0.00000000  0.00000000  1
  Cl  Cl4  1  0.63595300  0.36404700  0.44291800  1
  Cl  Cl5  1  0.36404700  0.63595300  0.94291800  1
  Cl  Cl6  1  0.63595300  0.36404700  0.05708200  1
  Cl  Cl7  1  0.36404700  0.63595300  0.55708200  1
  Cl  Cl8  1  0.08567300  0.91432700  0.75000000  1
  Cl  Cl9  1  0.91432700  0.08567300  0.25000000  1
