# generated using pymatgen
data_CaAgO2
_symmetry_space_group_name_H-M   'P 1'
_cell_length_a   5.77066445
_cell_length_b   5.77066445
_cell_length_c   3.45858700
_cell_angle_alpha   90.00000000
_cell_angle_beta   90.00000000
_cell_angle_gamma   106.13494293
_symmetry_Int_Tables_number   1
_chemical_formula_structural   CaAgO2
_chemical_formula_sum   'Ca2 Ag2 O4'
_cell_volume   110.63623385
_cell_formula_units_Z   2
loop_
 _symmetry_equiv_pos_site_id
 _symmetry_equiv_pos_as_xyz
  1  'x, y, z'
loop_
 _atom_site_type_symbol
 _atom_site_label
 _atom_site_symmetry_multiplicity
 _atom_site_fract_x
 _atom_site_fract_y
 _atom_site_fract_z
 _atom_site_occupancy
  Ca  Ca0  1  0.00000000  0.00000000  0.00000000  1
  Ca  Ca1  1  0.50000000  0.50000000  0.00000000  1
  Ag  Ag2  1  0.50000000  0.00000000  0.50000000  1
  Ag  Ag3  1  0.00000000  0.50000000  0.50000000  1
  O  O4  1  0.75000000  0.25000000  0.13436500  1
  O  O5  1  0.75000000  0.75000000  0.50000000  1
  O  O6  1  0.25000000  0.25000000  0.50000000  1
  O  O7  1  0.25000000  0.75000000  0.86563500  1
