# generated using pymatgen
data_NaAc2Sn
_symmetry_space_group_name_H-M   'P 1'
_cell_length_a   5.82729668
_cell_length_b   5.82729668
_cell_length_c   5.82729668
_cell_angle_alpha   60.00000000
_cell_angle_beta   60.00000000
_cell_angle_gamma   60.00000000
_symmetry_Int_Tables_number   1
_chemical_formula_structural   NaAc2Sn
_chemical_formula_sum   'Na1 Ac2 Sn1'
_cell_volume   139.92212468
_cell_formula_units_Z   1
loop_
 _symmetry_equiv_pos_site_id
 _symmetry_equiv_pos_as_xyz
  1  'x, y, z'
loop_
 _atom_site_type_symbol
 _atom_site_label
 _atom_site_symmetry_multiplicity
 _atom_site_fract_x
 _atom_site_fract_y
 _atom_site_fract_z
 _atom_site_occupancy
  Na  Na0  1  0.50000000  0.50000000  0.50000000  1
  Ac  Ac1  1  0.75000000  0.75000000  0.75000000  1
  Ac  Ac2  1  0.25000000  0.25000000  0.25000000  1
  Sn  Sn3  1  0.00000000  0.00000000  0.00000000  1
