# generated using pymatgen
data_BaCuO2
_symmetry_space_group_name_H-M   'P 1'
_cell_length_a   8.56241291
_cell_length_b   8.56241291
_cell_length_c   4.09571100
_cell_angle_alpha   90.00000000
_cell_angle_beta   90.00000000
_cell_angle_gamma   152.84104224
_symmetry_Int_Tables_number   1
_chemical_formula_structural   BaCuO2
_chemical_formula_sum   'Ba2 Cu2 O4'
_cell_volume   137.06451442
_cell_formula_units_Z   2
loop_
 _symmetry_equiv_pos_site_id
 _symmetry_equiv_pos_as_xyz
  1  'x, y, z'
loop_
 _atom_site_type_symbol
 _atom_site_label
 _atom_site_symmetry_multiplicity
 _atom_site_fract_x
 _atom_site_fract_y
 _atom_site_fract_z
 _atom_site_occupancy
  Ba  Ba0  1  0.66362300  0.33637700  0.25000000  1
  Ba  Ba1  1  0.33637700  0.66362300  0.75000000  1
  Cu  Cu2  1  0.93842600  0.06157400  0.25000000  1
  Cu  Cu3  1  0.06157400  0.93842600  0.75000000  1
  O  O4  1  0.17569400  0.82430600  0.75000000  1
  O  O5  1  0.05181400  0.94818600  0.25000000  1
  O  O6  1  0.82430600  0.17569400  0.25000000  1
  O  O7  1  0.94818600  0.05181400  0.75000000  1
