# generated using pymatgen
data_KZrCuS3
_symmetry_space_group_name_H-M   'P 1'
_cell_length_a   7.40059200
_cell_length_b   7.40059200
_cell_length_c   9.83612900
_cell_angle_alpha   90.00000000
_cell_angle_beta   90.00000000
_cell_angle_gamma   150.53575504
_symmetry_Int_Tables_number   1
_chemical_formula_structural   KZrCuS3
_chemical_formula_sum   'K2 Zr2 Cu2 S6'
_cell_volume   264.98213220
_cell_formula_units_Z   2
loop_
 _symmetry_equiv_pos_site_id
 _symmetry_equiv_pos_as_xyz
  1  'x, y, z'
loop_
 _atom_site_type_symbol
 _atom_site_label
 _atom_site_symmetry_multiplicity
 _atom_site_fract_x
 _atom_site_fract_y
 _atom_site_fract_z
 _atom_site_occupancy
  K  K0  1  0.74533300  0.25466700  0.25000000  1
  K  K1  1  0.25466700  0.74533300  0.75000000  1
  Zr  Zr2  1  0.00000000  0.00000000  0.00000000  1
  Zr  Zr3  1  0.00000000  0.00000000  0.50000000  1
  Cu  Cu4  1  0.46743200  0.53256800  0.25000000  1
  Cu  Cu5  1  0.53256800  0.46743200  0.75000000  1
  S  S6  1  0.06456200  0.93543800  0.25000000  1
  S  S7  1  0.93543800  0.06456200  0.75000000  1
  S  S8  1  0.62006700  0.37993300  0.55477100  1
  S  S9  1  0.62006700  0.37993300  0.94522900  1
  S  S10  1  0.37993300  0.62006700  0.05477100  1
  S  S11  1  0.37993300  0.62006700  0.44522900  1
