# generated using pymatgen
data_Sr(MgSb)2
_symmetry_space_group_name_H-M   'P 1'
_cell_length_a   4.75440791
_cell_length_b   4.75440791
_cell_length_c   7.88766600
_cell_angle_alpha   90.00000000
_cell_angle_beta   90.00000000
_cell_angle_gamma   119.99999870
_symmetry_Int_Tables_number   1
_chemical_formula_structural   Sr(MgSb)2
_chemical_formula_sum   'Sr1 Mg2 Sb2'
_cell_volume   154.40879318
_cell_formula_units_Z   1
loop_
 _symmetry_equiv_pos_site_id
 _symmetry_equiv_pos_as_xyz
  1  'x, y, z'
loop_
 _atom_site_type_symbol
 _atom_site_label
 _atom_site_symmetry_multiplicity
 _atom_site_fract_x
 _atom_site_fract_y
 _atom_site_fract_z
 _atom_site_occupancy
  Sr  Sr0  1  0.00000000  0.00000000  0.00000000  1
  Mg  Mg1  1  0.66666700  0.33333300  0.37226500  1
  Mg  Mg2  1  0.33333300  0.66666700  0.62773500  1
  Sb  Sb3  1  0.33333300  0.66666700  0.25616100  1
  Sb  Sb4  1  0.66666700  0.33333300  0.74383900  1
