# generated using pymatgen
data_Pr3(CuSn)4
_symmetry_space_group_name_H-M   'P 1'
_cell_length_a   8.66471627
_cell_length_b   8.66471627
_cell_length_c   8.66471627
_cell_angle_alpha   149.10366946
_cell_angle_beta   131.92469023
_cell_angle_gamma   58.24749980
_symmetry_Int_Tables_number   1
_chemical_formula_structural   Pr3(CuSn)4
_chemical_formula_sum   'Pr3 Cu4 Sn4'
_cell_volume   246.63481890
_cell_formula_units_Z   1
loop_
 _symmetry_equiv_pos_site_id
 _symmetry_equiv_pos_as_xyz
  1  'x, y, z'
loop_
 _atom_site_type_symbol
 _atom_site_label
 _atom_site_symmetry_multiplicity
 _atom_site_fract_x
 _atom_site_fract_y
 _atom_site_fract_z
 _atom_site_occupancy
  Pr  Pr0  1  0.50000000  0.00000000  0.50000000  1
  Pr  Pr1  1  0.13292700  0.13292700  0.00000000  1
  Pr  Pr2  1  0.86707300  0.86707300  0.00000000  1
  Cu  Cu3  1  0.48508800  0.66797400  0.81711400  1
  Cu  Cu4  1  0.85085900  0.66797400  0.18288600  1
  Cu  Cu5  1  0.14914100  0.33202600  0.81711400  1
  Cu  Cu6  1  0.51491200  0.33202600  0.18288600  1
  Sn  Sn7  1  0.20029000  0.50000000  0.70029000  1
  Sn  Sn8  1  0.79971000  0.50000000  0.29971000  1
  Sn  Sn9  1  0.71669000  0.21669000  0.50000000  1
  Sn  Sn10  1  0.28331000  0.78331000  0.50000000  1
