# generated using pymatgen
data_Ho(AlC)3
_symmetry_space_group_name_H-M   'P 1'
_cell_length_a   3.42882787
_cell_length_b   3.42882787
_cell_length_c   17.30045500
_cell_angle_alpha   90.00000000
_cell_angle_beta   90.00000000
_cell_angle_gamma   119.99999744
_symmetry_Int_Tables_number   1
_chemical_formula_structural   Ho(AlC)3
_chemical_formula_sum   'Ho2 Al6 C6'
_cell_volume   176.14873750
_cell_formula_units_Z   2
loop_
 _symmetry_equiv_pos_site_id
 _symmetry_equiv_pos_as_xyz
  1  'x, y, z'
loop_
 _atom_site_type_symbol
 _atom_site_label
 _atom_site_symmetry_multiplicity
 _atom_site_fract_x
 _atom_site_fract_y
 _atom_site_fract_z
 _atom_site_occupancy
  Ho  Ho0  1  0.00000000  0.00000000  0.00000000  1
  Ho  Ho1  1  0.00000000  0.00000000  0.50000000  1
  Al  Al2  1  0.33333300  0.66666700  0.13325600  1
  Al  Al3  1  0.66666700  0.33333300  0.25000000  1
  Al  Al4  1  0.33333300  0.66666700  0.36674400  1
  Al  Al5  1  0.66666700  0.33333300  0.63325600  1
  Al  Al6  1  0.33333300  0.66666700  0.75000000  1
  Al  Al7  1  0.66666700  0.33333300  0.86674400  1
  C  C8  1  0.66666700  0.33333300  0.09239300  1
  C  C9  1  0.33333300  0.66666700  0.25000000  1
  C  C10  1  0.66666700  0.33333300  0.40760700  1
  C  C11  1  0.33333300  0.66666700  0.59239300  1
  C  C12  1  0.66666700  0.33333300  0.75000000  1
  C  C13  1  0.33333300  0.66666700  0.90760700  1
