# generated using pymatgen
data_RbLuS2
_symmetry_space_group_name_H-M   'P 1'
_cell_length_a   8.00290955
_cell_length_b   8.00290955
_cell_length_c   8.00290909
_cell_angle_alpha   28.92418774
_cell_angle_beta   28.92418774
_cell_angle_gamma   28.92418604
_symmetry_Int_Tables_number   1
_chemical_formula_structural   RbLuS2
_chemical_formula_sum   'Rb1 Lu1 S2'
_cell_volume   106.03650469
_cell_formula_units_Z   1
loop_
 _symmetry_equiv_pos_site_id
 _symmetry_equiv_pos_as_xyz
  1  'x, y, z'
loop_
 _atom_site_type_symbol
 _atom_site_label
 _atom_site_symmetry_multiplicity
 _atom_site_fract_x
 _atom_site_fract_y
 _atom_site_fract_z
 _atom_site_occupancy
  Rb  Rb0  1  0.00000000  0.00000000  0.00000000  1
  Lu  Lu1  1  0.50000000  0.50000000  0.50000000  1
  S  S2  1  0.77055100  0.77055100  0.77055100  1
  S  S3  1  0.22944900  0.22944900  0.22944900  1
