# generated using pymatgen
data_La(BIr)4
_symmetry_space_group_name_H-M   'P 1'
_cell_length_a   7.74708800
_cell_length_b   7.74708800
_cell_length_c   3.99082700
_cell_angle_alpha   90.00000000
_cell_angle_beta   90.00000000
_cell_angle_gamma   90.00000000
_symmetry_Int_Tables_number   1
_chemical_formula_structural   La(BIr)4
_chemical_formula_sum   'La2 B8 Ir8'
_cell_volume   239.51895056
_cell_formula_units_Z   2
loop_
 _symmetry_equiv_pos_site_id
 _symmetry_equiv_pos_as_xyz
  1  'x, y, z'
loop_
 _atom_site_type_symbol
 _atom_site_label
 _atom_site_symmetry_multiplicity
 _atom_site_fract_x
 _atom_site_fract_y
 _atom_site_fract_z
 _atom_site_occupancy
  La  La0  1  0.50000000  0.50000000  0.00000000  1
  La  La1  1  0.00000000  0.00000000  0.50000000  1
  B  B2  1  0.65851200  0.77974500  0.60683000  1
  B  B3  1  0.15851200  0.27974500  0.89317000  1
  B  B4  1  0.27974500  0.84148800  0.10683000  1
  B  B5  1  0.72025500  0.15851200  0.10683000  1
  B  B6  1  0.34148800  0.22025500  0.60683000  1
  B  B7  1  0.84148800  0.72025500  0.89317000  1
  B  B8  1  0.22025500  0.65851200  0.39317000  1
  B  B9  1  0.77974500  0.34148800  0.39317000  1
  Ir  Ir10  1  0.34144500  0.10960400  0.10687400  1
  Ir  Ir11  1  0.65855500  0.89039600  0.10687400  1
  Ir  Ir12  1  0.60960400  0.15855500  0.60687400  1
  Ir  Ir13  1  0.10960400  0.65855500  0.89312600  1
  Ir  Ir14  1  0.15855500  0.39039600  0.39312600  1
  Ir  Ir15  1  0.84144500  0.60960400  0.39312600  1
  Ir  Ir16  1  0.89039600  0.34144500  0.89312600  1
  Ir  Ir17  1  0.39039600  0.84144500  0.60687400  1
