# generated using pymatgen
data_Y(BIr)4
_symmetry_space_group_name_H-M   'P 1'
_cell_length_a   7.63940700
_cell_length_b   7.63940700
_cell_length_c   3.99717300
_cell_angle_alpha   90.00000000
_cell_angle_beta   90.00000000
_cell_angle_gamma   90.00000000
_symmetry_Int_Tables_number   1
_chemical_formula_structural   Y(BIr)4
_chemical_formula_sum   'Y2 B8 Ir8'
_cell_volume   233.27717200
_cell_formula_units_Z   2
loop_
 _symmetry_equiv_pos_site_id
 _symmetry_equiv_pos_as_xyz
  1  'x, y, z'
loop_
 _atom_site_type_symbol
 _atom_site_label
 _atom_site_symmetry_multiplicity
 _atom_site_fract_x
 _atom_site_fract_y
 _atom_site_fract_z
 _atom_site_occupancy
  Y  Y0  1  0.00000000  0.00000000  0.00000000  1
  Y  Y1  1  0.50000000  0.50000000  0.50000000  1
  B  B2  1  0.34183300  0.77883500  0.88875800  1
  B  B3  1  0.65816700  0.22116500  0.88875800  1
  B  B4  1  0.77883500  0.65816700  0.11124200  1
  B  B5  1  0.22116500  0.34183300  0.11124200  1
  B  B6  1  0.27883500  0.15816700  0.38875800  1
  B  B7  1  0.72116500  0.84183300  0.38875800  1
  B  B8  1  0.84183300  0.27883500  0.61124200  1
  B  B9  1  0.15816700  0.72116500  0.61124200  1
  Ir  Ir10  1  0.39046100  0.15987900  0.88749300  1
  Ir  Ir11  1  0.60953900  0.84012100  0.88749300  1
  Ir  Ir12  1  0.84012100  0.39046100  0.11250700  1
  Ir  Ir13  1  0.15987900  0.60953900  0.11250700  1
  Ir  Ir14  1  0.34012100  0.89046100  0.38749300  1
  Ir  Ir15  1  0.65987900  0.10953900  0.38749300  1
  Ir  Ir16  1  0.89046100  0.65987900  0.61250700  1
  Ir  Ir17  1  0.10953900  0.34012100  0.61250700  1
