# generated using pymatgen
data_HoCoC2
_symmetry_space_group_name_H-M   'P 1'
_cell_length_a   3.74503191
_cell_length_b   3.74503191
_cell_length_c   3.53977000
_cell_angle_alpha   90.00000000
_cell_angle_beta   90.00000000
_cell_angle_gamma   106.06716615
_symmetry_Int_Tables_number   1
_chemical_formula_structural   HoCoC2
_chemical_formula_sum   'Ho1 Co1 C2'
_cell_volume   47.70692439
_cell_formula_units_Z   1
loop_
 _symmetry_equiv_pos_site_id
 _symmetry_equiv_pos_as_xyz
  1  'x, y, z'
loop_
 _atom_site_type_symbol
 _atom_site_label
 _atom_site_symmetry_multiplicity
 _atom_site_fract_x
 _atom_site_fract_y
 _atom_site_fract_z
 _atom_site_occupancy
  Ho  Ho0  1  0.00110200  0.99889800  0.00000000  1
  Co  Co1  1  0.38415500  0.61584500  0.50000000  1
  C  C2  1  0.54170300  0.15195900  0.50000000  1
  C  C3  1  0.84804100  0.45829700  0.50000000  1
