# generated using pymatgen
data_SrTiN2
_symmetry_space_group_name_H-M   'P 1'
_cell_length_a   3.90162200
_cell_length_b   3.90162200
_cell_length_c   7.76092200
_cell_angle_alpha   90.00000000
_cell_angle_beta   90.00000000
_cell_angle_gamma   90.00000000
_symmetry_Int_Tables_number   1
_chemical_formula_structural   SrTiN2
_chemical_formula_sum   'Sr2 Ti2 N4'
_cell_volume   118.14183212
_cell_formula_units_Z   2
loop_
 _symmetry_equiv_pos_site_id
 _symmetry_equiv_pos_as_xyz
  1  'x, y, z'
loop_
 _atom_site_type_symbol
 _atom_site_label
 _atom_site_symmetry_multiplicity
 _atom_site_fract_x
 _atom_site_fract_y
 _atom_site_fract_z
 _atom_site_occupancy
  Sr  Sr0  1  0.00000000  0.50000000  0.16158500  1
  Sr  Sr1  1  0.50000000  0.00000000  0.83841500  1
  Ti  Ti2  1  0.50000000  0.00000000  0.41362700  1
  Ti  Ti3  1  0.00000000  0.50000000  0.58637300  1
  N  N4  1  0.00000000  0.50000000  0.82362600  1
  N  N5  1  0.50000000  0.00000000  0.17637400  1
  N  N6  1  0.00000000  0.00000000  0.50000000  1
  N  N7  1  0.50000000  0.50000000  0.50000000  1
