# generated using pymatgen
data_Na6Cd16Au7
_symmetry_space_group_name_H-M   'P 1'
_cell_length_a   9.78621784
_cell_length_b   9.78621784
_cell_length_c   9.78621784
_cell_angle_alpha   60.00000000
_cell_angle_beta   60.00000000
_cell_angle_gamma   60.00000000
_symmetry_Int_Tables_number   1
_chemical_formula_structural   Na6Cd16Au7
_chemical_formula_sum   'Na6 Cd16 Au7'
_cell_volume   662.71933189
_cell_formula_units_Z   1
loop_
 _symmetry_equiv_pos_site_id
 _symmetry_equiv_pos_as_xyz
  1  'x, y, z'
loop_
 _atom_site_type_symbol
 _atom_site_label
 _atom_site_symmetry_multiplicity
 _atom_site_fract_x
 _atom_site_fract_y
 _atom_site_fract_z
 _atom_site_occupancy
  Na  Na0  1  0.29228000  0.70772000  0.70772000  1
  Na  Na1  1  0.70772000  0.29228000  0.29228000  1
  Na  Na2  1  0.70772000  0.29228000  0.70772000  1
  Na  Na3  1  0.70772000  0.70772000  0.29228000  1
  Na  Na4  1  0.29228000  0.70772000  0.29228000  1
  Na  Na5  1  0.29228000  0.29228000  0.70772000  1
  Cd  Cd6  1  0.35810800  0.88063100  0.88063100  1
  Cd  Cd7  1  0.88063100  0.35810800  0.88063100  1
  Cd  Cd8  1  0.88063100  0.88063100  0.88063100  1
  Cd  Cd9  1  0.88063100  0.88063100  0.35810800  1
  Cd  Cd10  1  0.11936900  0.64189200  0.11936900  1
  Cd  Cd11  1  0.64189200  0.11936900  0.11936900  1
  Cd  Cd12  1  0.11936900  0.11936900  0.11936900  1
  Cd  Cd13  1  0.11936900  0.11936900  0.64189200  1
  Cd  Cd14  1  0.66159900  0.66159900  0.01520200  1
  Cd  Cd15  1  0.66159900  0.66159900  0.66159900  1
  Cd  Cd16  1  0.66159900  0.01520200  0.66159900  1
  Cd  Cd17  1  0.01520200  0.66159900  0.66159900  1
  Cd  Cd18  1  0.33840100  0.33840100  0.98479800  1
  Cd  Cd19  1  0.33840100  0.33840100  0.33840100  1
  Cd  Cd20  1  0.98479800  0.33840100  0.33840100  1
  Cd  Cd21  1  0.33840100  0.98479800  0.33840100  1
  Au  Au22  1  0.00000000  0.00000000  0.00000000  1
  Au  Au23  1  0.50000000  0.50000000  0.00000000  1
  Au  Au24  1  0.00000000  0.00000000  0.50000000  1
  Au  Au25  1  0.00000000  0.50000000  0.50000000  1
  Au  Au26  1  0.50000000  0.00000000  0.50000000  1
  Au  Au27  1  0.50000000  0.00000000  0.00000000  1
  Au  Au28  1  0.00000000  0.50000000  0.00000000  1
