# generated using pymatgen
data_RbAuSe
_symmetry_space_group_name_H-M   'P 1'
_cell_length_a   5.47335301
_cell_length_b   5.47335301
_cell_length_c   7.26812600
_cell_angle_alpha   90.00000000
_cell_angle_beta   90.00000000
_cell_angle_gamma   101.13637372
_symmetry_Int_Tables_number   1
_chemical_formula_structural   RbAuSe
_chemical_formula_sum   'Rb2 Au2 Se2'
_cell_volume   213.63565432
_cell_formula_units_Z   2
loop_
 _symmetry_equiv_pos_site_id
 _symmetry_equiv_pos_as_xyz
  1  'x, y, z'
loop_
 _atom_site_type_symbol
 _atom_site_label
 _atom_site_symmetry_multiplicity
 _atom_site_fract_x
 _atom_site_fract_y
 _atom_site_fract_z
 _atom_site_occupancy
  Rb  Rb0  1  0.63605200  0.36394800  0.25000000  1
  Rb  Rb1  1  0.36394800  0.63605200  0.75000000  1
  Au  Au2  1  0.00000000  0.00000000  0.00000000  1
  Au  Au3  1  0.00000000  0.00000000  0.50000000  1
  Se  Se4  1  0.19605200  0.80394800  0.25000000  1
  Se  Se5  1  0.80394800  0.19605200  0.75000000  1
