# generated using pymatgen
data_NaBeAs
_symmetry_space_group_name_H-M   'P 1'
_cell_length_a   3.83660801
_cell_length_b   3.83660801
_cell_length_c   9.01674200
_cell_angle_alpha   90.00000000
_cell_angle_beta   90.00000000
_cell_angle_gamma   120.00000011
_symmetry_Int_Tables_number   1
_chemical_formula_structural   NaBeAs
_chemical_formula_sum   'Na2 Be2 As2'
_cell_volume   114.94104254
_cell_formula_units_Z   2
loop_
 _symmetry_equiv_pos_site_id
 _symmetry_equiv_pos_as_xyz
  1  'x, y, z'
loop_
 _atom_site_type_symbol
 _atom_site_label
 _atom_site_symmetry_multiplicity
 _atom_site_fract_x
 _atom_site_fract_y
 _atom_site_fract_z
 _atom_site_occupancy
  Na  Na0  1  0.00000000  0.00000000  0.00000000  1
  Na  Na1  1  0.00000000  0.00000000  0.50000000  1
  Be  Be2  1  0.66666700  0.33333300  0.25000000  1
  Be  Be3  1  0.33333300  0.66666700  0.75000000  1
  As  As4  1  0.33333300  0.66666700  0.25000000  1
  As  As5  1  0.66666700  0.33333300  0.75000000  1
