# generated using pymatgen
data_Tl
_symmetry_space_group_name_H-M   'P 1'
_cell_length_a   8.50182557
_cell_length_b   8.50182557
_cell_length_c   8.50182559
_cell_angle_alpha   24.80347622
_cell_angle_beta   24.80347622
_cell_angle_gamma   24.80347365
_symmetry_Int_Tables_number   1
_chemical_formula_structural   Tl
_chemical_formula_sum   Tl3
_cell_volume   95.11991391
_cell_formula_units_Z   3
loop_
 _symmetry_equiv_pos_site_id
 _symmetry_equiv_pos_as_xyz
  1  'x, y, z'
loop_
 _atom_site_type_symbol
 _atom_site_label
 _atom_site_symmetry_multiplicity
 _atom_site_fract_x
 _atom_site_fract_y
 _atom_site_fract_z
 _atom_site_occupancy
  Tl  Tl0  1  0.00000000  0.00000000  0.00000000  1
  Tl  Tl1  1  0.22059800  0.22059800  0.22059800  1
  Tl  Tl2  1  0.77940200  0.77940200  0.77940200  1
