# generated using pymatgen
data_Tl3BiCl6
_symmetry_space_group_name_H-M   'P 1'
_cell_length_a   9.09494200
_cell_length_b   9.09494200
_cell_length_c   7.68866200
_cell_angle_alpha   90.00000000
_cell_angle_beta   90.00000000
_cell_angle_gamma   90.00000000
_symmetry_Int_Tables_number   1
_chemical_formula_structural   Tl3BiCl6
_chemical_formula_sum   'Tl6 Bi2 Cl12'
_cell_volume   635.99051253
_cell_formula_units_Z   2
loop_
 _symmetry_equiv_pos_site_id
 _symmetry_equiv_pos_as_xyz
  1  'x, y, z'
loop_
 _atom_site_type_symbol
 _atom_site_label
 _atom_site_symmetry_multiplicity
 _atom_site_fract_x
 _atom_site_fract_y
 _atom_site_fract_z
 _atom_site_occupancy
  Tl  Tl0  1  0.50000000  0.50000000  0.00000000  1
  Tl  Tl1  1  0.50000000  0.50000000  0.50000000  1
  Tl  Tl2  1  0.26309200  0.08390500  0.00000000  1
  Tl  Tl3  1  0.73690800  0.91609500  0.00000000  1
  Tl  Tl4  1  0.08390500  0.73690800  0.50000000  1
  Tl  Tl5  1  0.91609500  0.26309200  0.50000000  1
  Bi  Bi6  1  0.00000000  0.50000000  0.00000000  1
  Bi  Bi7  1  0.50000000  0.00000000  0.50000000  1
  Cl  Cl8  1  0.56322500  0.20238400  0.24930000  1
  Cl  Cl9  1  0.43677500  0.79761600  0.24930000  1
  Cl  Cl10  1  0.20238400  0.43677500  0.74930000  1
  Cl  Cl11  1  0.79761600  0.56322500  0.74930000  1
  Cl  Cl12  1  0.43677500  0.79761600  0.75070000  1
  Cl  Cl13  1  0.56322500  0.20238400  0.75070000  1
  Cl  Cl14  1  0.79761600  0.56322500  0.25070000  1
  Cl  Cl15  1  0.20238400  0.43677500  0.25070000  1
  Cl  Cl16  1  0.20692600  0.06349800  0.50000000  1
  Cl  Cl17  1  0.79307400  0.93650200  0.50000000  1
  Cl  Cl18  1  0.06349800  0.79307400  0.00000000  1
  Cl  Cl19  1  0.93650200  0.20692600  0.00000000  1
