# generated using pymatgen
data_Li2RuF6
_symmetry_space_group_name_H-M   'P 1'
_cell_length_a   4.71893700
_cell_length_b   4.71893700
_cell_length_c   9.29712500
_cell_angle_alpha   90.00000000
_cell_angle_beta   90.00000000
_cell_angle_gamma   90.00000000
_symmetry_Int_Tables_number   1
_chemical_formula_structural   Li2RuF6
_chemical_formula_sum   'Li4 Ru2 F12'
_cell_volume   207.03178606
_cell_formula_units_Z   2
loop_
 _symmetry_equiv_pos_site_id
 _symmetry_equiv_pos_as_xyz
  1  'x, y, z'
loop_
 _atom_site_type_symbol
 _atom_site_label
 _atom_site_symmetry_multiplicity
 _atom_site_fract_x
 _atom_site_fract_y
 _atom_site_fract_z
 _atom_site_occupancy
  Li  Li0  1  0.50000000  0.50000000  0.16760000  1
  Li  Li1  1  0.00000000  0.00000000  0.33240000  1
  Li  Li2  1  0.00000000  0.00000000  0.66760000  1
  Li  Li3  1  0.50000000  0.50000000  0.83240000  1
  Ru  Ru4  1  0.00000000  0.00000000  0.00000000  1
  Ru  Ru5  1  0.50000000  0.50000000  0.50000000  1
  F  F6  1  0.28821200  0.28821200  0.00000000  1
  F  F7  1  0.71178800  0.71178800  0.00000000  1
  F  F8  1  0.80573700  0.19426300  0.16046500  1
  F  F9  1  0.19426300  0.80573700  0.16046500  1
  F  F10  1  0.30573700  0.30573700  0.33953500  1
  F  F11  1  0.69426300  0.69426300  0.33953500  1
  F  F12  1  0.78821200  0.21178800  0.50000000  1
  F  F13  1  0.21178800  0.78821200  0.50000000  1
  F  F14  1  0.30573700  0.30573700  0.66046500  1
  F  F15  1  0.69426300  0.69426300  0.66046500  1
  F  F16  1  0.80573700  0.19426300  0.83953500  1
  F  F17  1  0.19426300  0.80573700  0.83953500  1
