# generated using pymatgen
data_Tm5Sb3
_symmetry_space_group_name_H-M   'P 1'
_cell_length_a   8.84866193
_cell_length_b   8.84866193
_cell_length_c   6.21977400
_cell_angle_alpha   90.00000000
_cell_angle_beta   90.00000000
_cell_angle_gamma   119.99999947
_symmetry_Int_Tables_number   1
_chemical_formula_structural   Tm5Sb3
_chemical_formula_sum   'Tm10 Sb6'
_cell_volume   421.75519839
_cell_formula_units_Z   2
loop_
 _symmetry_equiv_pos_site_id
 _symmetry_equiv_pos_as_xyz
  1  'x, y, z'
loop_
 _atom_site_type_symbol
 _atom_site_label
 _atom_site_symmetry_multiplicity
 _atom_site_fract_x
 _atom_site_fract_y
 _atom_site_fract_z
 _atom_site_occupancy
  Tm  Tm0  1  0.33333300  0.66666700  0.00000000  1
  Tm  Tm1  1  0.66666700  0.33333300  0.50000000  1
  Tm  Tm2  1  0.66666700  0.33333300  0.00000000  1
  Tm  Tm3  1  0.33333300  0.66666700  0.50000000  1
  Tm  Tm4  1  0.24504300  0.00000000  0.25000000  1
  Tm  Tm5  1  0.75495700  0.00000000  0.75000000  1
  Tm  Tm6  1  0.00000000  0.24504300  0.25000000  1
  Tm  Tm7  1  0.75495700  0.75495700  0.25000000  1
  Tm  Tm8  1  0.24504300  0.24504300  0.75000000  1
  Tm  Tm9  1  0.00000000  0.75495700  0.75000000  1
  Sb  Sb10  1  0.61005600  0.00000000  0.25000000  1
  Sb  Sb11  1  0.38994400  0.00000000  0.75000000  1
  Sb  Sb12  1  0.00000000  0.61005600  0.25000000  1
  Sb  Sb13  1  0.38994400  0.38994400  0.25000000  1
  Sb  Sb14  1  0.61005600  0.61005600  0.75000000  1
  Sb  Sb15  1  0.00000000  0.38994400  0.75000000  1
