# generated using pymatgen
data_LiP
_symmetry_space_group_name_H-M   'P 1'
_cell_length_a   4.97038500
_cell_length_b   5.59387200
_cell_length_c   10.25075076
_cell_angle_alpha   61.84448216
_cell_angle_beta   90.00000000
_cell_angle_gamma   90.00000000
_symmetry_Int_Tables_number   1
_chemical_formula_structural   LiP
_chemical_formula_sum   'Li8 P8'
_cell_volume   251.28370102
_cell_formula_units_Z   8
loop_
 _symmetry_equiv_pos_site_id
 _symmetry_equiv_pos_as_xyz
  1  'x, y, z'
loop_
 _atom_site_type_symbol
 _atom_site_label
 _atom_site_symmetry_multiplicity
 _atom_site_fract_x
 _atom_site_fract_y
 _atom_site_fract_z
 _atom_site_occupancy
  Li  Li0  1  0.61175300  0.21700800  0.67070000  1
  Li  Li1  1  0.11175300  0.78299200  0.82930000  1
  Li  Li2  1  0.38824700  0.78299200  0.32930000  1
  Li  Li3  1  0.88824700  0.21700800  0.17070000  1
  Li  Li4  1  0.34168400  0.22576800  0.97021400  1
  Li  Li5  1  0.84168400  0.77423200  0.52978600  1
  Li  Li6  1  0.65831600  0.77423200  0.02978600  1
  Li  Li7  1  0.15831600  0.22576800  0.47021400  1
  P  P8  1  0.10509600  0.31664500  0.70708400  1
  P  P9  1  0.60509600  0.68335500  0.79291600  1
  P  P10  1  0.89490400  0.68335500  0.29291600  1
  P  P11  1  0.39490400  0.31664500  0.20708400  1
  P  P12  1  0.84397300  0.30318200  0.88825800  1
  P  P13  1  0.34397300  0.69681800  0.61174200  1
  P  P14  1  0.15602700  0.69681800  0.11174200  1
  P  P15  1  0.65602700  0.30318200  0.38825800  1
