# generated using pymatgen
data_Ca3VN3
_symmetry_space_group_name_H-M   'P 1'
_cell_length_a   6.73075679
_cell_length_b   6.73075679
_cell_length_c   5.08656600
_cell_angle_alpha   90.00000000
_cell_angle_beta   90.00000000
_cell_angle_gamma   101.33373150
_symmetry_Int_Tables_number   1
_chemical_formula_structural   Ca3VN3
_chemical_formula_sum   'Ca6 V2 N6'
_cell_volume   225.94341730
_cell_formula_units_Z   2
loop_
 _symmetry_equiv_pos_site_id
 _symmetry_equiv_pos_as_xyz
  1  'x, y, z'
loop_
 _atom_site_type_symbol
 _atom_site_label
 _atom_site_symmetry_multiplicity
 _atom_site_fract_x
 _atom_site_fract_y
 _atom_site_fract_z
 _atom_site_occupancy
  Ca  Ca0  1  0.59788300  0.82797900  0.25000000  1
  Ca  Ca1  1  0.40211700  0.17202100  0.75000000  1
  Ca  Ca2  1  0.89140800  0.10859200  0.75000000  1
  Ca  Ca3  1  0.10859200  0.89140800  0.25000000  1
  Ca  Ca4  1  0.82797900  0.59788300  0.75000000  1
  Ca  Ca5  1  0.17202100  0.40211700  0.25000000  1
  V  V6  1  0.30246500  0.69753500  0.75000000  1
  V  V7  1  0.69753500  0.30246500  0.25000000  1
  N  N8  1  0.81671000  0.56919800  0.25000000  1
  N  N9  1  0.18329000  0.43080200  0.75000000  1
  N  N10  1  0.87294600  0.12705400  0.25000000  1
  N  N11  1  0.12705400  0.87294600  0.75000000  1
  N  N12  1  0.43080200  0.18329000  0.25000000  1
  N  N13  1  0.56919800  0.81671000  0.75000000  1
