# generated using pymatgen
data_K2BrCl6F
_symmetry_space_group_name_H-M   'P 1'
_cell_length_a   7.15867834
_cell_length_b   7.15867834
_cell_length_c   7.15867834
_cell_angle_alpha   60.00000000
_cell_angle_beta   60.00000000
_cell_angle_gamma   60.00000000
_symmetry_Int_Tables_number   1
_chemical_formula_structural   K2BrCl6F
_chemical_formula_sum   'K2 Br1 Cl6 F1'
_cell_volume   259.40810958
_cell_formula_units_Z   1
loop_
 _symmetry_equiv_pos_site_id
 _symmetry_equiv_pos_as_xyz
  1  'x, y, z'
loop_
 _atom_site_type_symbol
 _atom_site_label
 _atom_site_symmetry_multiplicity
 _atom_site_fract_x
 _atom_site_fract_y
 _atom_site_fract_z
 _atom_site_occupancy
  K  K0  1  0.25000000  0.25000000  0.25000000  1
  K  K1  1  0.75000000  0.75000000  0.75000000  1
  Br  Br2  1  0.00000000  0.00000000  0.00000000  1
  Cl  Cl3  1  0.24333400  0.75666600  0.75666600  1
  Cl  Cl4  1  0.24333400  0.75666600  0.24333400  1
  Cl  Cl5  1  0.75666600  0.24333400  0.75666600  1
  Cl  Cl6  1  0.75666600  0.75666600  0.24333400  1
  Cl  Cl7  1  0.24333400  0.24333400  0.75666600  1
  Cl  Cl8  1  0.75666600  0.24333400  0.24333400  1
  F  F9  1  0.50000000  0.50000000  0.50000000  1
