# generated using pymatgen
data_Y(Re2Si)2
_symmetry_space_group_name_H-M   'P 1'
_cell_length_a   7.41295400
_cell_length_b   7.41295400
_cell_length_c   4.14608800
_cell_angle_alpha   90.00000000
_cell_angle_beta   90.00000000
_cell_angle_gamma   90.00000000
_symmetry_Int_Tables_number   1
_chemical_formula_structural   Y(Re2Si)2
_chemical_formula_sum   'Y2 Re8 Si4'
_cell_volume   227.83535929
_cell_formula_units_Z   2
loop_
 _symmetry_equiv_pos_site_id
 _symmetry_equiv_pos_as_xyz
  1  'x, y, z'
loop_
 _atom_site_type_symbol
 _atom_site_label
 _atom_site_symmetry_multiplicity
 _atom_site_fract_x
 _atom_site_fract_y
 _atom_site_fract_z
 _atom_site_occupancy
  Y  Y0  1  0.50000000  0.50000000  0.00000000  1
  Y  Y1  1  0.00000000  0.00000000  0.50000000  1
  Re  Re2  1  0.65780000  0.90606300  0.00000000  1
  Re  Re3  1  0.15780000  0.59393700  0.50000000  1
  Re  Re4  1  0.09393700  0.34220000  0.00000000  1
  Re  Re5  1  0.90606300  0.65780000  0.00000000  1
  Re  Re6  1  0.40606300  0.84220000  0.50000000  1
  Re  Re7  1  0.59393700  0.15780000  0.50000000  1
  Re  Re8  1  0.34220000  0.09393700  0.00000000  1
  Re  Re9  1  0.84220000  0.40606300  0.50000000  1
  Si  Si10  1  0.20902800  0.79097200  0.00000000  1
  Si  Si11  1  0.79097200  0.20902800  0.00000000  1
  Si  Si12  1  0.70902800  0.70902800  0.50000000  1
  Si  Si13  1  0.29097200  0.29097200  0.50000000  1
