# generated using pymatgen
data_LaF3
_symmetry_space_group_name_H-M   'P 1'
_cell_length_a   7.24650575
_cell_length_b   7.24650575
_cell_length_c   7.39085100
_cell_angle_alpha   90.00000000
_cell_angle_beta   90.00000000
_cell_angle_gamma   119.99999775
_symmetry_Int_Tables_number   1
_chemical_formula_structural   LaF3
_chemical_formula_sum   'La6 F18'
_cell_volume   336.11072544
_cell_formula_units_Z   6
loop_
 _symmetry_equiv_pos_site_id
 _symmetry_equiv_pos_as_xyz
  1  'x, y, z'
loop_
 _atom_site_type_symbol
 _atom_site_label
 _atom_site_symmetry_multiplicity
 _atom_site_fract_x
 _atom_site_fract_y
 _atom_site_fract_z
 _atom_site_occupancy
  La  La0  1  0.34267600  0.34267600  0.75000000  1
  La  La1  1  0.00000000  0.65732400  0.75000000  1
  La  La2  1  0.65732400  0.00000000  0.75000000  1
  La  La3  1  0.65732400  0.65732400  0.25000000  1
  La  La4  1  0.00000000  0.34267600  0.25000000  1
  La  La5  1  0.34267600  0.00000000  0.25000000  1
  F  F6  1  0.00000000  0.00000000  0.75000000  1
  F  F7  1  0.00000000  0.00000000  0.25000000  1
  F  F8  1  0.33333300  0.66666700  0.81485100  1
  F  F9  1  0.66666700  0.33333300  0.68514900  1
  F  F10  1  0.66666700  0.33333300  0.18514900  1
  F  F11  1  0.33333300  0.66666700  0.31485100  1
  F  F12  1  0.30946900  0.93919600  0.57990100  1
  F  F13  1  0.06080400  0.37027300  0.57990100  1
  F  F14  1  0.62972700  0.69053100  0.57990100  1
  F  F15  1  0.37027300  0.06080400  0.92009900  1
  F  F16  1  0.69053100  0.62972700  0.92009900  1
  F  F17  1  0.93919600  0.30946900  0.92009900  1
  F  F18  1  0.69053100  0.06080400  0.42009900  1
  F  F19  1  0.93919600  0.62972700  0.42009900  1
  F  F20  1  0.37027300  0.30946900  0.42009900  1
  F  F21  1  0.62972700  0.93919600  0.07990100  1
  F  F22  1  0.30946900  0.37027300  0.07990100  1
  F  F23  1  0.06080400  0.69053100  0.07990100  1
