# generated using pymatgen
data_LaWN3
_symmetry_space_group_name_H-M   'P 1'
_cell_length_a   5.70352977
_cell_length_b   5.70352977
_cell_length_c   5.70353024
_cell_angle_alpha   60.10421556
_cell_angle_beta   60.10421556
_cell_angle_gamma   60.10421894
_symmetry_Int_Tables_number   1
_chemical_formula_structural   LaWN3
_chemical_formula_sum   'La2 W2 N6'
_cell_volume   131.50445471
_cell_formula_units_Z   2
loop_
 _symmetry_equiv_pos_site_id
 _symmetry_equiv_pos_as_xyz
  1  'x, y, z'
loop_
 _atom_site_type_symbol
 _atom_site_label
 _atom_site_symmetry_multiplicity
 _atom_site_fract_x
 _atom_site_fract_y
 _atom_site_fract_z
 _atom_site_occupancy
  La  La0  1  0.53507000  0.53507000  0.53507000  1
  La  La1  1  0.03507000  0.03507000  0.03507000  1
  W  W2  1  0.78439000  0.78439000  0.78439000  1
  W  W3  1  0.28439000  0.28439000  0.28439000  1
  N  N4  1  0.99939000  0.10733000  0.55553000  1
  N  N5  1  0.60733000  0.49939000  0.05553000  1
  N  N6  1  0.05553000  0.60733000  0.49939000  1
  N  N7  1  0.49939000  0.05553000  0.60733000  1
  N  N8  1  0.55553000  0.99939000  0.10733000  1
  N  N9  1  0.10733000  0.55553000  0.99939000  1
