# generated using pymatgen
data_SmZn2
_symmetry_space_group_name_H-M   'P 1'
_cell_length_a   5.74776266
_cell_length_b   5.74776266
_cell_length_c   5.74776266
_cell_angle_alpha   133.27471386
_cell_angle_beta   100.68868944
_cell_angle_gamma   97.41355844
_symmetry_Int_Tables_number   1
_chemical_formula_structural   SmZn2
_chemical_formula_sum   'Sm2 Zn4'
_cell_volume   126.84640878
_cell_formula_units_Z   2
loop_
 _symmetry_equiv_pos_site_id
 _symmetry_equiv_pos_as_xyz
  1  'x, y, z'
loop_
 _atom_site_type_symbol
 _atom_site_label
 _atom_site_symmetry_multiplicity
 _atom_site_fract_x
 _atom_site_fract_y
 _atom_site_fract_z
 _atom_site_occupancy
  Sm  Sm0  1  0.21638400  0.46638400  0.75000000  1
  Sm  Sm1  1  0.78361600  0.53361600  0.25000000  1
  Zn  Zn2  1  0.21483100  0.16573400  0.04909600  1
  Zn  Zn3  1  0.78516900  0.83426600  0.95090400  1
  Zn  Zn4  1  0.61663800  0.16573400  0.45090400  1
  Zn  Zn5  1  0.38336200  0.83426600  0.54909600  1
