# generated using pymatgen
data_K2Pd3S4
_symmetry_space_group_name_H-M   'P 1'
_cell_length_a   14.17320442
_cell_length_b   13.44943175
_cell_length_c   6.25856942
_cell_angle_alpha   83.45902975
_cell_angle_beta   70.51980041
_cell_angle_gamma   26.02116983
_symmetry_Int_Tables_number   1
_chemical_formula_structural   K2Pd3S4
_chemical_formula_sum   'K4 Pd6 S8'
_cell_volume   440.85065363
_cell_formula_units_Z   2
loop_
 _symmetry_equiv_pos_site_id
 _symmetry_equiv_pos_as_xyz
  1  'x, y, z'
loop_
 _atom_site_type_symbol
 _atom_site_label
 _atom_site_symmetry_multiplicity
 _atom_site_fract_x
 _atom_site_fract_y
 _atom_site_fract_z
 _atom_site_occupancy
  K  K0  1  0.07764200  0.07764200  0.92235800  1
  K  K1  1  0.32764200  0.32764200  0.17235800  1
  K  K2  1  0.17235800  0.17235800  0.32764200  1
  K  K3  1  0.92235800  0.92235800  0.07764200  1
  Pd  Pd4  1  0.25088000  0.25088000  0.74912000  1
  Pd  Pd5  1  0.50088000  0.50088000  0.99912000  1
  Pd  Pd6  1  0.99912000  0.99912000  0.50088000  1
  Pd  Pd7  1  0.50000000  0.50000000  0.50000000  1
  Pd  Pd8  1  0.75000000  0.75000000  0.75000000  1
  Pd  Pd9  1  0.74912000  0.74912000  0.25088000  1
  S  S10  1  0.73049000  0.38741700  0.60137600  1
  S  S11  1  0.86258300  0.51951000  0.96928300  1
  S  S12  1  0.64862400  0.96928300  0.51951000  1
  S  S13  1  0.96928300  0.64862400  0.86258300  1
  S  S14  1  0.28071700  0.60137600  0.38741700  1
  S  S15  1  0.60137600  0.28071700  0.73049000  1
  S  S16  1  0.38741700  0.73049000  0.28071700  1
  S  S17  1  0.51951000  0.86258300  0.64862400  1
