# generated using pymatgen
data_Ba(AuO2)2
_symmetry_space_group_name_H-M   'P 1'
_cell_length_a   6.98138841
_cell_length_b   6.98138841
_cell_length_c   6.98138841
_cell_angle_alpha   123.74556508
_cell_angle_beta   123.74556508
_cell_angle_gamma   83.62635851
_symmetry_Int_Tables_number   1
_chemical_formula_structural   Ba(AuO2)2
_chemical_formula_sum   'Ba2 Au4 O8'
_cell_volume   225.45805282
_cell_formula_units_Z   2
loop_
 _symmetry_equiv_pos_site_id
 _symmetry_equiv_pos_as_xyz
  1  'x, y, z'
loop_
 _atom_site_type_symbol
 _atom_site_label
 _atom_site_symmetry_multiplicity
 _atom_site_fract_x
 _atom_site_fract_y
 _atom_site_fract_z
 _atom_site_occupancy
  Ba  Ba0  1  0.75000000  0.25000000  0.50000000  1
  Ba  Ba1  1  0.00000000  0.00000000  0.00000000  1
  Au  Au2  1  0.37500000  0.62500000  0.75000000  1
  Au  Au3  1  0.37500000  0.12500000  0.75000000  1
  Au  Au4  1  0.87500000  0.62500000  0.25000000  1
  Au  Au5  1  0.37500000  0.62500000  0.25000000  1
  O  O6  1  0.05312200  0.43783600  0.08302700  1
  O  O7  1  0.72009600  0.30312200  0.11528700  1
  O  O8  1  0.18783600  0.60480900  0.88471300  1
  O  O9  1  0.35480900  0.97009600  0.91697300  1
  O  O10  1  0.69687800  0.81216400  0.41697300  1
  O  O11  1  0.02990400  0.94687800  0.38471300  1
  O  O12  1  0.39519100  0.27990400  0.58302700  1
  O  O13  1  0.56216400  0.64519100  0.61528700  1
