# generated using pymatgen
data_MgCd
_symmetry_space_group_name_H-M   'P 1'
_cell_length_a   8.19328629
_cell_length_b   8.19328629
_cell_length_c   4.97684000
_cell_angle_alpha   90.00000000
_cell_angle_beta   90.00000000
_cell_angle_gamma   157.04686291
_symmetry_Int_Tables_number   1
_chemical_formula_structural   MgCd
_chemical_formula_sum   'Mg3 Cd3'
_cell_volume   130.28972434
_cell_formula_units_Z   3
loop_
 _symmetry_equiv_pos_site_id
 _symmetry_equiv_pos_as_xyz
  1  'x, y, z'
loop_
 _atom_site_type_symbol
 _atom_site_label
 _atom_site_symmetry_multiplicity
 _atom_site_fract_x
 _atom_site_fract_y
 _atom_site_fract_z
 _atom_site_occupancy
  Mg  Mg0  1  0.99483900  0.00516100  0.00000000  1
  Mg  Mg1  1  0.66510800  0.33489200  0.00000000  1
  Mg  Mg2  1  0.78251800  0.21748200  0.50000000  1
  Cd  Cd3  1  0.33009300  0.66990700  0.00000000  1
  Cd  Cd4  1  0.44611100  0.55388900  0.50000000  1
  Cd  Cd5  1  0.11465900  0.88534100  0.50000000  1
