# generated using pymatgen
data_MgB7
_symmetry_space_group_name_H-M   'P 1'
_cell_length_a   7.26397239
_cell_length_b   7.26397239
_cell_length_c   7.26397239
_cell_angle_alpha   131.43868125
_cell_angle_beta   112.11232252
_cell_angle_gamma   87.80838059
_symmetry_Int_Tables_number   1
_chemical_formula_structural   MgB7
_chemical_formula_sum   'Mg4 B28'
_cell_volume   253.63360882
_cell_formula_units_Z   4
loop_
 _symmetry_equiv_pos_site_id
 _symmetry_equiv_pos_as_xyz
  1  'x, y, z'
loop_
 _atom_site_type_symbol
 _atom_site_label
 _atom_site_symmetry_multiplicity
 _atom_site_fract_x
 _atom_site_fract_y
 _atom_site_fract_z
 _atom_site_occupancy
  Mg  Mg0  1  0.00000000  0.50000000  0.00000000  1
  Mg  Mg1  1  0.00000000  0.00000000  0.50000000  1
  Mg  Mg2  1  0.38615300  0.25000000  0.13615300  1
  Mg  Mg3  1  0.61384700  0.75000000  0.86384700  1
  B  B4  1  0.24399200  0.35905500  0.88493700  1
  B  B5  1  0.37748400  0.67570600  0.20887900  1
  B  B6  1  0.37748400  0.16860500  0.70177800  1
  B  B7  1  0.75861800  0.08222800  0.67639000  1
  B  B8  1  0.35820400  0.83392600  0.52427800  1
  B  B9  1  0.59966600  0.78102200  0.50777200  1
  B  B10  1  0.59966600  0.09189400  0.81864400  1
  B  B11  1  0.90583800  0.58222800  0.32361000  1
  B  B12  1  0.02588200  0.14094500  0.88493700  1
  B  B13  1  0.19035100  0.66607400  0.52427800  1
  B  B14  1  0.03317300  0.33139500  0.20887900  1
  B  B15  1  0.03317300  0.82429400  0.70177800  1
  B  B16  1  0.77325000  0.28102200  0.18135600  1
  B  B17  1  0.77325000  0.59189400  0.49222800  1
  B  B18  1  0.22675000  0.40810600  0.50777200  1
  B  B19  1  0.22675000  0.71897800  0.81864400  1
  B  B20  1  0.96682700  0.17570600  0.29822200  1
  B  B21  1  0.96682700  0.66860500  0.79112100  1
  B  B22  1  0.80964900  0.33392600  0.47572200  1
  B  B23  1  0.97411800  0.85905500  0.11506300  1
  B  B24  1  0.09416200  0.41777200  0.67639000  1
  B  B25  1  0.40033400  0.90810600  0.18135600  1
  B  B26  1  0.40033400  0.21897800  0.49222800  1
  B  B27  1  0.64179600  0.16607400  0.47572200  1
  B  B28  1  0.24138200  0.91777200  0.32361000  1
  B  B29  1  0.62251600  0.83139500  0.29822200  1
  B  B30  1  0.62251600  0.32429400  0.79112100  1
  B  B31  1  0.75600800  0.64094500  0.11506300  1
