# generated using pymatgen
data_PrBN2
_symmetry_space_group_name_H-M   'P 1'
_cell_length_a   7.44658660
_cell_length_b   7.44658660
_cell_length_c   7.44658649
_cell_angle_alpha   110.47094518
_cell_angle_beta   110.47094518
_cell_angle_gamma   110.47095386
_symmetry_Int_Tables_number   1
_chemical_formula_structural   PrBN2
_chemical_formula_sum   'Pr6 B6 N12'
_cell_volume   305.53929987
_cell_formula_units_Z   6
loop_
 _symmetry_equiv_pos_site_id
 _symmetry_equiv_pos_as_xyz
  1  'x, y, z'
loop_
 _atom_site_type_symbol
 _atom_site_label
 _atom_site_symmetry_multiplicity
 _atom_site_fract_x
 _atom_site_fract_y
 _atom_site_fract_z
 _atom_site_occupancy
  Pr  Pr0  1  0.25000000  0.70438300  0.79561700  1
  Pr  Pr1  1  0.79561700  0.25000000  0.70438300  1
  Pr  Pr2  1  0.70438300  0.79561700  0.25000000  1
  Pr  Pr3  1  0.75000000  0.29561700  0.20438300  1
  Pr  Pr4  1  0.20438300  0.75000000  0.29561700  1
  Pr  Pr5  1  0.29561700  0.20438300  0.75000000  1
  B  B6  1  0.75000000  0.63096500  0.86903500  1
  B  B7  1  0.25000000  0.36903500  0.13096500  1
  B  B8  1  0.13096500  0.25000000  0.36903500  1
  B  B9  1  0.36903500  0.13096500  0.25000000  1
  B  B10  1  0.86903500  0.75000000  0.63096500  1
  B  B11  1  0.63096500  0.86903500  0.75000000  1
  N  N12  1  0.50953200  0.99046800  0.75000000  1
  N  N13  1  0.99046800  0.75000000  0.50953200  1
  N  N14  1  0.25000000  0.49046800  0.00953200  1
  N  N15  1  0.75000000  0.50953200  0.99046800  1
  N  N16  1  0.49046800  0.00953200  0.25000000  1
  N  N17  1  0.00953200  0.25000000  0.49046800  1
  N  N18  1  0.87165400  0.62834600  0.75000000  1
  N  N19  1  0.62834600  0.75000000  0.87165400  1
  N  N20  1  0.75000000  0.87165400  0.62834600  1
  N  N21  1  0.12834600  0.37165400  0.25000000  1
  N  N22  1  0.37165400  0.25000000  0.12834600  1
  N  N23  1  0.25000000  0.12834600  0.37165400  1
