# generated using pymatgen
data_Rb2TlInF6
_symmetry_space_group_name_H-M   'P 1'
_cell_length_a   6.73519068
_cell_length_b   6.73519068
_cell_length_c   6.73519068
_cell_angle_alpha   60.00000000
_cell_angle_beta   60.00000000
_cell_angle_gamma   60.00000000
_symmetry_Int_Tables_number   1
_chemical_formula_structural   Rb2TlInF6
_chemical_formula_sum   'Rb2 Tl1 In1 F6'
_cell_volume   216.04025844
_cell_formula_units_Z   1
loop_
 _symmetry_equiv_pos_site_id
 _symmetry_equiv_pos_as_xyz
  1  'x, y, z'
loop_
 _atom_site_type_symbol
 _atom_site_label
 _atom_site_symmetry_multiplicity
 _atom_site_fract_x
 _atom_site_fract_y
 _atom_site_fract_z
 _atom_site_occupancy
  Rb  Rb0  1  0.75000000  0.75000000  0.75000000  1
  Rb  Rb1  1  0.25000000  0.25000000  0.25000000  1
  Tl  Tl2  1  0.00000000  0.00000000  0.00000000  1
  In  In3  1  0.50000000  0.50000000  0.50000000  1
  F  F4  1  0.72158700  0.27841300  0.27841300  1
  F  F5  1  0.27841300  0.27841400  0.72158700  1
  F  F6  1  0.27841300  0.72158700  0.72158600  1
  F  F7  1  0.27841300  0.72158600  0.27841400  1
  F  F8  1  0.72158700  0.27841300  0.72158600  1
  F  F9  1  0.72158700  0.72158700  0.27841300  1
