# generated using pymatgen
data_HoMgSn
_symmetry_space_group_name_H-M   'P 1'
_cell_length_a   8.52724652
_cell_length_b   8.52724652
_cell_length_c   8.52724652
_cell_angle_alpha   150.18189023
_cell_angle_beta   150.18189023
_cell_angle_gamma   42.67447342
_symmetry_Int_Tables_number   1
_chemical_formula_structural   HoMgSn
_chemical_formula_sum   'Ho2 Mg2 Sn2'
_cell_volume   152.92516957
_cell_formula_units_Z   2
loop_
 _symmetry_equiv_pos_site_id
 _symmetry_equiv_pos_as_xyz
  1  'x, y, z'
loop_
 _atom_site_type_symbol
 _atom_site_label
 _atom_site_symmetry_multiplicity
 _atom_site_fract_x
 _atom_site_fract_y
 _atom_site_fract_z
 _atom_site_occupancy
  Ho  Ho0  1  0.66763100  0.66763100  0.00000000  1
  Ho  Ho1  1  0.33236900  0.33236900  0.00000000  1
  Mg  Mg2  1  0.00000000  0.50000000  0.50000000  1
  Mg  Mg3  1  0.50000000  0.00000000  0.50000000  1
  Sn  Sn4  1  0.13582500  0.13582500  0.00000000  1
  Sn  Sn5  1  0.86417500  0.86417500  0.00000000  1
