# generated using pymatgen
data_UPSe
_symmetry_space_group_name_H-M   'P 1'
_cell_length_a   3.87558500
_cell_length_b   3.87558500
_cell_length_c   8.31763400
_cell_angle_alpha   90.00000000
_cell_angle_beta   90.00000000
_cell_angle_gamma   90.00000000
_symmetry_Int_Tables_number   1
_chemical_formula_structural   UPSe
_chemical_formula_sum   'U2 P2 Se2'
_cell_volume   124.93218595
_cell_formula_units_Z   2
loop_
 _symmetry_equiv_pos_site_id
 _symmetry_equiv_pos_as_xyz
  1  'x, y, z'
loop_
 _atom_site_type_symbol
 _atom_site_label
 _atom_site_symmetry_multiplicity
 _atom_site_fract_x
 _atom_site_fract_y
 _atom_site_fract_z
 _atom_site_occupancy
  U  U0  1  0.00000000  0.50000000  0.74501100  1
  U  U1  1  0.50000000  0.00000000  0.25498900  1
  P  P2  1  0.50000000  0.50000000  0.00000000  1
  P  P3  1  0.00000000  0.00000000  0.00000000  1
  Se  Se4  1  0.50000000  0.00000000  0.63403300  1
  Se  Se5  1  0.00000000  0.50000000  0.36596700  1
