# generated using pymatgen
data_Pr(CoB)4
_symmetry_space_group_name_H-M   'P 1'
_cell_length_a   7.08233500
_cell_length_b   7.08233500
_cell_length_c   3.78792100
_cell_angle_alpha   90.00000000
_cell_angle_beta   90.00000000
_cell_angle_gamma   90.00000000
_symmetry_Int_Tables_number   1
_chemical_formula_structural   Pr(CoB)4
_chemical_formula_sum   'Pr2 Co8 B8'
_cell_volume   190.00010617
_cell_formula_units_Z   2
loop_
 _symmetry_equiv_pos_site_id
 _symmetry_equiv_pos_as_xyz
  1  'x, y, z'
loop_
 _atom_site_type_symbol
 _atom_site_label
 _atom_site_symmetry_multiplicity
 _atom_site_fract_x
 _atom_site_fract_y
 _atom_site_fract_z
 _atom_site_occupancy
  Pr  Pr0  1  0.00000000  0.00000000  0.00000000  1
  Pr  Pr1  1  0.50000000  0.50000000  0.50000000  1
  Co  Co2  1  0.85752300  0.38517900  0.10567300  1
  Co  Co3  1  0.14247700  0.61482100  0.10567300  1
  Co  Co4  1  0.88517900  0.64247700  0.60567300  1
  Co  Co5  1  0.11482100  0.35752300  0.60567300  1
  Co  Co6  1  0.64247700  0.11482100  0.39432700  1
  Co  Co7  1  0.35752300  0.88517900  0.39432700  1
  Co  Co8  1  0.61482100  0.85752300  0.89432700  1
  Co  Co9  1  0.38517900  0.14247700  0.89432700  1
  B  B10  1  0.33801500  0.79618300  0.89677900  1
  B  B11  1  0.66198500  0.20381700  0.89677900  1
  B  B12  1  0.29618300  0.16198500  0.39677900  1
  B  B13  1  0.70381700  0.83801500  0.39677900  1
  B  B14  1  0.16198500  0.70381700  0.60322100  1
  B  B15  1  0.83801500  0.29618300  0.60322100  1
  B  B16  1  0.20381700  0.33801500  0.10322100  1
  B  B17  1  0.79618300  0.66198500  0.10322100  1
