# generated using pymatgen
data_Nd(NiSb)2
_symmetry_space_group_name_H-M   'P 1'
_cell_length_a   4.48034300
_cell_length_b   4.48034300
_cell_length_c   10.08589200
_cell_angle_alpha   90.00000000
_cell_angle_beta   90.00000000
_cell_angle_gamma   90.00000000
_symmetry_Int_Tables_number   1
_chemical_formula_structural   Nd(NiSb)2
_chemical_formula_sum   'Nd2 Ni4 Sb4'
_cell_volume   202.45888475
_cell_formula_units_Z   2
loop_
 _symmetry_equiv_pos_site_id
 _symmetry_equiv_pos_as_xyz
  1  'x, y, z'
loop_
 _atom_site_type_symbol
 _atom_site_label
 _atom_site_symmetry_multiplicity
 _atom_site_fract_x
 _atom_site_fract_y
 _atom_site_fract_z
 _atom_site_occupancy
  Nd  Nd0  1  0.00000000  0.50000000  0.76113100  1
  Nd  Nd1  1  0.50000000  0.00000000  0.23886900  1
  Ni  Ni2  1  0.00000000  0.50000000  0.37491400  1
  Ni  Ni3  1  0.50000000  0.00000000  0.62508600  1
  Ni  Ni4  1  0.50000000  0.50000000  0.00000000  1
  Ni  Ni5  1  0.00000000  0.00000000  0.00000000  1
  Sb  Sb6  1  0.00000000  0.50000000  0.12576800  1
  Sb  Sb7  1  0.50000000  0.00000000  0.87423200  1
  Sb  Sb8  1  0.50000000  0.50000000  0.50000000  1
  Sb  Sb9  1  0.00000000  0.00000000  0.50000000  1
