# generated using pymatgen
data_YbGa2Pd
_symmetry_space_group_name_H-M   'P 1'
_cell_length_a   5.40968325
_cell_length_b   5.40968325
_cell_length_c   6.88381100
_cell_angle_alpha   90.00000000
_cell_angle_beta   90.00000000
_cell_angle_gamma   131.60036622
_symmetry_Int_Tables_number   1
_chemical_formula_structural   YbGa2Pd
_chemical_formula_sum   'Yb2 Ga4 Pd2'
_cell_volume   150.64492263
_cell_formula_units_Z   2
loop_
 _symmetry_equiv_pos_site_id
 _symmetry_equiv_pos_as_xyz
  1  'x, y, z'
loop_
 _atom_site_type_symbol
 _atom_site_label
 _atom_site_symmetry_multiplicity
 _atom_site_fract_x
 _atom_site_fract_y
 _atom_site_fract_z
 _atom_site_occupancy
  Yb  Yb0  1  0.58362600  0.41637400  0.25000000  1
  Yb  Yb1  1  0.41637400  0.58362600  0.75000000  1
  Ga  Ga2  1  0.86743900  0.13256100  0.05624200  1
  Ga  Ga3  1  0.13256100  0.86743900  0.55624200  1
  Ga  Ga4  1  0.13256100  0.86743900  0.94375800  1
  Ga  Ga5  1  0.86743900  0.13256100  0.44375800  1
  Pd  Pd6  1  0.29641600  0.70358400  0.25000000  1
  Pd  Pd7  1  0.70358400  0.29641600  0.75000000  1
