# generated using pymatgen
data_Rb3NbO8
_symmetry_space_group_name_H-M   'P 1'
_cell_length_a   6.55767881
_cell_length_b   6.55767881
_cell_length_c   6.55767881
_cell_angle_alpha   113.33714786
_cell_angle_beta   113.33714786
_cell_angle_gamma   101.98866679
_symmetry_Int_Tables_number   1
_chemical_formula_structural   Rb3NbO8
_chemical_formula_sum   'Rb3 Nb1 O8'
_cell_volume   214.35858340
_cell_formula_units_Z   1
loop_
 _symmetry_equiv_pos_site_id
 _symmetry_equiv_pos_as_xyz
  1  'x, y, z'
loop_
 _atom_site_type_symbol
 _atom_site_label
 _atom_site_symmetry_multiplicity
 _atom_site_fract_x
 _atom_site_fract_y
 _atom_site_fract_z
 _atom_site_occupancy
  Rb  Rb0  1  0.50000000  0.50000000  0.00000000  1
  Rb  Rb1  1  0.75000000  0.25000000  0.50000000  1
  Rb  Rb2  1  0.25000000  0.75000000  0.50000000  1
  Nb  Nb3  1  0.00000000  0.00000000  0.00000000  1
  O  O4  1  0.31770900  0.31770900  0.27189300  1
  O  O5  1  0.95418400  0.68229100  0.00000000  1
  O  O6  1  0.68229100  0.95418400  0.00000000  1
  O  O7  1  0.04581600  0.04581600  0.72810700  1
  O  O8  1  0.81589200  0.81589200  0.59033700  1
  O  O9  1  0.77444500  0.18410800  0.00000000  1
  O  O10  1  0.18410800  0.77444500  0.00000000  1
  O  O11  1  0.22555500  0.22555500  0.40966300  1
