# generated using pymatgen
data_KSeO2F
_symmetry_space_group_name_H-M   'P 1'
_cell_length_a   6.17178000
_cell_length_b   4.56979400
_cell_length_c   7.41713160
_cell_angle_alpha   71.52937418
_cell_angle_beta   90.00000000
_cell_angle_gamma   90.00000000
_symmetry_Int_Tables_number   1
_chemical_formula_structural   KSeO2F
_chemical_formula_sum   'K2 Se2 O4 F2'
_cell_volume   198.41479978
_cell_formula_units_Z   2
loop_
 _symmetry_equiv_pos_site_id
 _symmetry_equiv_pos_as_xyz
  1  'x, y, z'
loop_
 _atom_site_type_symbol
 _atom_site_label
 _atom_site_symmetry_multiplicity
 _atom_site_fract_x
 _atom_site_fract_y
 _atom_site_fract_z
 _atom_site_occupancy
  K  K0  1  0.75000000  0.83275200  0.32539300  1
  K  K1  1  0.25000000  0.16724800  0.67460700  1
  Se  Se2  1  0.75000000  0.58762100  0.83998700  1
  Se  Se3  1  0.25000000  0.41237900  0.16001300  1
  O  O4  1  0.46724600  0.34496100  0.30118700  1
  O  O5  1  0.96724600  0.65503900  0.69881300  1
  O  O6  1  0.53275400  0.65503900  0.69881300  1
  O  O7  1  0.03275400  0.34496100  0.30118700  1
  F  F8  1  0.75000000  0.13983000  0.91606300  1
  F  F9  1  0.25000000  0.86017000  0.08393700  1
