# generated using pymatgen
data_SiP2
_symmetry_space_group_name_H-M   'P 1'
_cell_length_a   3.44890400
_cell_length_b   10.29138500
_cell_length_c   15.96494200
_cell_angle_alpha   90.00000000
_cell_angle_beta   90.00000000
_cell_angle_gamma   90.00000000
_symmetry_Int_Tables_number   1
_chemical_formula_structural   SiP2
_chemical_formula_sum   'Si8 P16'
_cell_volume   566.65963366
_cell_formula_units_Z   8
loop_
 _symmetry_equiv_pos_site_id
 _symmetry_equiv_pos_as_xyz
  1  'x, y, z'
loop_
 _atom_site_type_symbol
 _atom_site_label
 _atom_site_symmetry_multiplicity
 _atom_site_fract_x
 _atom_site_fract_y
 _atom_site_fract_z
 _atom_site_occupancy
  Si  Si0  1  0.00000000  0.58886800  0.83271600  1
  Si  Si1  1  0.00000000  0.41113200  0.16728400  1
  Si  Si2  1  0.00000000  0.08886800  0.66728400  1
  Si  Si3  1  0.00000000  0.91113200  0.33271600  1
  Si  Si4  1  0.50000000  0.80524800  0.73244300  1
  Si  Si5  1  0.50000000  0.19475200  0.26755700  1
  Si  Si6  1  0.50000000  0.30524800  0.76755700  1
  Si  Si7  1  0.50000000  0.69475200  0.23244300  1
  P  P8  1  0.00000000  0.67129300  0.70088800  1
  P  P9  1  0.00000000  0.32870700  0.29911200  1
  P  P10  1  0.00000000  0.17129300  0.79911200  1
  P  P11  1  0.00000000  0.82870700  0.20088800  1
  P  P12  1  0.00000000  0.75758300  0.92562600  1
  P  P13  1  0.00000000  0.24241700  0.07437400  1
  P  P14  1  0.00000000  0.25758300  0.57437400  1
  P  P15  1  0.00000000  0.74241700  0.42562600  1
  P  P16  1  0.50000000  0.87376100  0.87194200  1
  P  P17  1  0.50000000  0.12623900  0.12805800  1
  P  P18  1  0.50000000  0.37376100  0.62805800  1
  P  P19  1  0.50000000  0.62623900  0.37194200  1
  P  P20  1  0.50000000  0.95991900  0.63042100  1
  P  P21  1  0.50000000  0.04008100  0.36957900  1
  P  P22  1  0.50000000  0.45991900  0.86957900  1
  P  P23  1  0.50000000  0.54008100  0.13042100  1
