# generated using pymatgen
data_LiTl2InF6
_symmetry_space_group_name_H-M   'P 1'
_cell_length_a   6.05849797
_cell_length_b   6.05849797
_cell_length_c   6.05849797
_cell_angle_alpha   60.00000000
_cell_angle_beta   60.00000000
_cell_angle_gamma   60.00000000
_symmetry_Int_Tables_number   1
_chemical_formula_structural   LiTl2InF6
_chemical_formula_sum   'Li1 Tl2 In1 F6'
_cell_volume   157.24610719
_cell_formula_units_Z   1
loop_
 _symmetry_equiv_pos_site_id
 _symmetry_equiv_pos_as_xyz
  1  'x, y, z'
loop_
 _atom_site_type_symbol
 _atom_site_label
 _atom_site_symmetry_multiplicity
 _atom_site_fract_x
 _atom_site_fract_y
 _atom_site_fract_z
 _atom_site_occupancy
  Li  Li0  1  0.50000000  0.50000000  0.50000000  1
  Tl  Tl1  1  0.25000000  0.25000000  0.25000000  1
  Tl  Tl2  1  0.75000000  0.75000000  0.75000000  1
  In  In3  1  0.00000000  0.00000000  0.00000000  1
  F  F4  1  0.24780400  0.75219600  0.75219600  1
  F  F5  1  0.24780400  0.75219600  0.24780400  1
  F  F6  1  0.75219600  0.24780400  0.75219600  1
  F  F7  1  0.75219600  0.75219600  0.24780400  1
  F  F8  1  0.24780400  0.24780400  0.75219600  1
  F  F9  1  0.75219600  0.24780400  0.24780400  1
