# generated using pymatgen
data_Cu3SbSe4
_symmetry_space_group_name_H-M   'P 1'
_cell_length_a   6.97961701
_cell_length_b   6.97961701
_cell_length_c   6.97961701
_cell_angle_alpha   131.60861786
_cell_angle_beta   131.60861786
_cell_angle_gamma   70.84787928
_symmetry_Int_Tables_number   1
_chemical_formula_structural   Cu3SbSe4
_chemical_formula_sum   'Cu3 Sb1 Se4'
_cell_volume   186.17044640
_cell_formula_units_Z   1
loop_
 _symmetry_equiv_pos_site_id
 _symmetry_equiv_pos_as_xyz
  1  'x, y, z'
loop_
 _atom_site_type_symbol
 _atom_site_label
 _atom_site_symmetry_multiplicity
 _atom_site_fract_x
 _atom_site_fract_y
 _atom_site_fract_z
 _atom_site_occupancy
  Cu  Cu0  1  0.75000000  0.25000000  0.50000000  1
  Cu  Cu1  1  0.50000000  0.50000000  0.00000000  1
  Cu  Cu2  1  0.25000000  0.75000000  0.50000000  1
  Sb  Sb3  1  0.00000000  0.00000000  0.00000000  1
  Se  Se4  1  0.13240100  0.59931500  0.00000000  1
  Se  Se5  1  0.59931500  0.13240100  0.00000000  1
  Se  Se6  1  0.86759900  0.86759900  0.46691500  1
  Se  Se7  1  0.40068500  0.40068500  0.53308500  1
