# generated using pymatgen
data_Ba(NiP)2
_symmetry_space_group_name_H-M   'P 1'
_cell_length_a   6.57328595
_cell_length_b   6.57328595
_cell_length_c   6.57328595
_cell_angle_alpha   145.05439781
_cell_angle_beta   145.05439781
_cell_angle_gamma   50.25346676
_symmetry_Int_Tables_number   1
_chemical_formula_structural   Ba(NiP)2
_chemical_formula_sum   'Ba1 Ni2 P2'
_cell_volume   92.72755877
_cell_formula_units_Z   1
loop_
 _symmetry_equiv_pos_site_id
 _symmetry_equiv_pos_as_xyz
  1  'x, y, z'
loop_
 _atom_site_type_symbol
 _atom_site_label
 _atom_site_symmetry_multiplicity
 _atom_site_fract_x
 _atom_site_fract_y
 _atom_site_fract_z
 _atom_site_occupancy
  Ba  Ba0  1  0.00000000  0.00000000  0.00000000  1
  Ni  Ni1  1  0.75000000  0.25000000  0.50000000  1
  Ni  Ni2  1  0.25000000  0.75000000  0.50000000  1
  P  P3  1  0.65882900  0.65882900  0.00000000  1
  P  P4  1  0.34117100  0.34117100  0.00000000  1
