# generated using pymatgen
data_Np3S5
_symmetry_space_group_name_H-M   'P 1'
_cell_length_a   7.30899400
_cell_length_b   7.92354600
_cell_length_c   11.49647300
_cell_angle_alpha   90.00000000
_cell_angle_beta   90.00000000
_cell_angle_gamma   90.00000000
_symmetry_Int_Tables_number   1
_chemical_formula_structural   Np3S5
_chemical_formula_sum   'Np12 S20'
_cell_volume   665.79696731
_cell_formula_units_Z   4
loop_
 _symmetry_equiv_pos_site_id
 _symmetry_equiv_pos_as_xyz
  1  'x, y, z'
loop_
 _atom_site_type_symbol
 _atom_site_label
 _atom_site_symmetry_multiplicity
 _atom_site_fract_x
 _atom_site_fract_y
 _atom_site_fract_z
 _atom_site_occupancy
  Np  Np0  1  0.02270300  0.00287600  0.67867600  1
  Np  Np1  1  0.52270300  0.99712400  0.82132400  1
  Np  Np2  1  0.47729700  0.49712400  0.17867600  1
  Np  Np3  1  0.97729700  0.50287600  0.32132400  1
  Np  Np4  1  0.97729700  0.99712400  0.32132400  1
  Np  Np5  1  0.47729700  0.00287600  0.17867600  1
  Np  Np6  1  0.52270300  0.50287600  0.82132400  1
  Np  Np7  1  0.02270300  0.49712400  0.67867600  1
  Np  Np8  1  0.57748400  0.25000000  0.50852300  1
  Np  Np9  1  0.07748400  0.75000000  0.99147700  1
  Np  Np10  1  0.92251600  0.25000000  0.00852300  1
  Np  Np11  1  0.42251600  0.75000000  0.49147700  1
  S  S12  1  0.33094800  0.25000000  0.69141200  1
  S  S13  1  0.83094800  0.75000000  0.80858800  1
  S  S14  1  0.16905200  0.25000000  0.19141200  1
  S  S15  1  0.66905200  0.75000000  0.30858800  1
  S  S16  1  0.96281100  0.25000000  0.49940200  1
  S  S17  1  0.46281100  0.75000000  0.00059800  1
  S  S18  1  0.53718900  0.25000000  0.99940200  1
  S  S19  1  0.03718900  0.75000000  0.50059800  1
  S  S20  1  0.67010900  0.54816100  0.59634500  1
  S  S21  1  0.17010900  0.45183900  0.90365500  1
  S  S22  1  0.82989100  0.95183900  0.09634500  1
  S  S23  1  0.32989100  0.04816100  0.40365500  1
  S  S24  1  0.32989100  0.45183900  0.40365500  1
  S  S25  1  0.82989100  0.54816100  0.09634500  1
  S  S26  1  0.17010900  0.04816100  0.90365500  1
  S  S27  1  0.67010900  0.95183900  0.59634500  1
  S  S28  1  0.80073900  0.25000000  0.78214300  1
  S  S29  1  0.30073900  0.75000000  0.71785700  1
  S  S30  1  0.69926100  0.25000000  0.28214300  1
  S  S31  1  0.19926100  0.75000000  0.21785700  1
