# generated using pymatgen
data_RbOsO3
_symmetry_space_group_name_H-M   'P 1'
_cell_length_a   7.02025551
_cell_length_b   7.02025551
_cell_length_c   7.02025550
_cell_angle_alpha   46.38872608
_cell_angle_beta   46.38872608
_cell_angle_gamma   46.38872566
_symmetry_Int_Tables_number   1
_chemical_formula_structural   RbOsO3
_chemical_formula_sum   'Rb2 Os2 O6'
_cell_volume   165.57652474
_cell_formula_units_Z   2
loop_
 _symmetry_equiv_pos_site_id
 _symmetry_equiv_pos_as_xyz
  1  'x, y, z'
loop_
 _atom_site_type_symbol
 _atom_site_label
 _atom_site_symmetry_multiplicity
 _atom_site_fract_x
 _atom_site_fract_y
 _atom_site_fract_z
 _atom_site_occupancy
  Rb  Rb0  1  0.86429600  0.86429600  0.86429600  1
  Rb  Rb1  1  0.13570400  0.13570400  0.13570400  1
  Os  Os2  1  0.66582500  0.66582500  0.66582500  1
  Os  Os3  1  0.33417500  0.33417500  0.33417500  1
  O  O4  1  0.64811500  0.05514100  0.46822800  1
  O  O5  1  0.46822800  0.64811500  0.05514100  1
  O  O6  1  0.05514100  0.46822800  0.64811500  1
  O  O7  1  0.35188500  0.94485900  0.53177200  1
  O  O8  1  0.94485900  0.53177200  0.35188500  1
  O  O9  1  0.53177200  0.35188500  0.94485900  1
