# generated using pymatgen
data_KCa9Mg(PO4)7
_symmetry_space_group_name_H-M   'P 1'
_cell_length_a   13.83472166
_cell_length_b   13.83472166
_cell_length_c   13.83472125
_cell_angle_alpha   44.64804145
_cell_angle_beta   44.64804145
_cell_angle_gamma   44.64803987
_symmetry_Int_Tables_number   1
_chemical_formula_structural   KCa9Mg(PO4)7
_chemical_formula_sum   'K2 Ca18 Mg2 P14 O56'
_cell_volume   1189.37072553
_cell_formula_units_Z   2
loop_
 _symmetry_equiv_pos_site_id
 _symmetry_equiv_pos_as_xyz
  1  'x, y, z'
loop_
 _atom_site_type_symbol
 _atom_site_label
 _atom_site_symmetry_multiplicity
 _atom_site_fract_x
 _atom_site_fract_y
 _atom_site_fract_z
 _atom_site_occupancy
  K  K0  1  0.68331000  0.68331000  0.68331000  1
  K  K1  1  0.18331000  0.18331000  0.18331000  1
  Ca  Ca2  1  0.56115200  0.94331500  0.97086800  1
  Ca  Ca3  1  0.97086800  0.56115200  0.94331500  1
  Ca  Ca4  1  0.94331500  0.97086800  0.56115200  1
  Ca  Ca5  1  0.06115200  0.47086800  0.44331500  1
  Ca  Ca6  1  0.44331500  0.06115200  0.47086800  1
  Ca  Ca7  1  0.47086800  0.44331500  0.06115200  1
  Ca  Ca8  1  0.90738500  0.34386100  0.94483000  1
  Ca  Ca9  1  0.94483000  0.90738500  0.34386100  1
  Ca  Ca10  1  0.34386100  0.94483100  0.90738500  1
  Ca  Ca11  1  0.40738500  0.44483000  0.84386100  1
  Ca  Ca12  1  0.84386100  0.40738500  0.44483000  1
  Ca  Ca13  1  0.44483000  0.84386100  0.40738500  1
  Ca  Ca14  1  0.07383100  0.65955900  0.06266300  1
  Ca  Ca15  1  0.06266300  0.07383100  0.65955900  1
  Ca  Ca16  1  0.65955900  0.06266300  0.07383100  1
  Ca  Ca17  1  0.57383100  0.56266300  0.15955900  1
  Ca  Ca18  1  0.15955900  0.57383100  0.56266300  1
  Ca  Ca19  1  0.56266300  0.15955900  0.57383100  1
  Mg  Mg20  1  0.49990600  0.49990600  0.49990600  1
  Mg  Mg21  1  0.99990600  0.99990600  0.99990600  1
  P  P22  1  0.81481300  0.77330500  0.31730200  1
  P  P23  1  0.17923300  0.22595300  0.68764700  1
  P  P24  1  0.68764700  0.17923300  0.22595300  1
  P  P25  1  0.22595300  0.68764700  0.17923300  1
  P  P26  1  0.77330500  0.31730200  0.81481300  1
  P  P27  1  0.18764700  0.72595300  0.67923300  1
  P  P28  1  0.31730200  0.81481300  0.77330500  1
  P  P29  1  0.72595300  0.67923300  0.18764700  1
  P  P30  1  0.81730200  0.27330500  0.31481300  1
  P  P31  1  0.31481300  0.81730200  0.27330500  1
  P  P32  1  0.76717300  0.76717300  0.76717300  1
  P  P33  1  0.26717300  0.26717300  0.26717300  1
  P  P34  1  0.67923300  0.18764700  0.72595300  1
  P  P35  1  0.27330500  0.31481300  0.81730200  1
  O  O36  1  0.66976200  0.11217200  0.68962000  1
  O  O37  1  0.68962000  0.66976200  0.11217200  1
  O  O38  1  0.11217200  0.68962000  0.66976200  1
  O  O39  1  0.16976200  0.18962000  0.61217200  1
  O  O40  1  0.61217200  0.16976200  0.18962000  1
  O  O41  1  0.18962000  0.61217200  0.16976200  1
  O  O42  1  0.60993100  0.36376500  0.63938000  1
  O  O43  1  0.63938000  0.60993100  0.36376500  1
  O  O44  1  0.36376500  0.63938000  0.60993100  1
  O  O45  1  0.10993100  0.13938000  0.86376500  1
  O  O46  1  0.86376500  0.10993100  0.13938000  1
  O  O47  1  0.13938000  0.86376500  0.10993100  1
  O  O48  1  0.84800700  0.13278100  0.67270900  1
  O  O49  1  0.67270900  0.84800700  0.13278100  1
  O  O50  1  0.13278100  0.67270900  0.84800700  1
  O  O51  1  0.34800700  0.17270900  0.63278100  1
  O  O52  1  0.63278100  0.34800700  0.17270900  1
  O  O53  1  0.17270900  0.63278100  0.34800700  1
  O  O54  1  0.58626900  0.14416400  0.89898900  1
  O  O55  1  0.89898900  0.58626900  0.14416400  1
  O  O56  1  0.14416400  0.89898900  0.58626900  1
  O  O57  1  0.08626900  0.39898900  0.64416400  1
  O  O58  1  0.84399400  0.38290300  0.64019500  1
  O  O59  1  0.64416400  0.08626900  0.39898900  1
  O  O60  1  0.87198000  0.14192800  0.87763100  1
  O  O61  1  0.87763100  0.87198000  0.14192800  1
  O  O62  1  0.14192800  0.87763100  0.87198000  1
  O  O63  1  0.37198000  0.37763100  0.64192800  1
  O  O64  1  0.64192800  0.37198000  0.37763100  1
  O  O65  1  0.37763100  0.64192800  0.37198000  1
  O  O66  1  0.61033400  0.33465400  0.89173000  1
  O  O67  1  0.89173000  0.61033400  0.33465400  1
  O  O68  1  0.33465400  0.89173000  0.61033400  1
  O  O69  1  0.11033400  0.39173000  0.83465400  1
  O  O70  1  0.83465400  0.11033400  0.39173000  1
  O  O71  1  0.39173000  0.83465400  0.11033400  1
  O  O72  1  0.30876800  0.30876800  0.30876800  1
  O  O73  1  0.80876800  0.80876800  0.80876800  1
  O  O74  1  0.10934700  0.26161000  0.39008900  1
  O  O75  1  0.26161000  0.39008900  0.10934700  1
  O  O76  1  0.39008900  0.10934700  0.26161000  1
  O  O77  1  0.76161000  0.60934700  0.89008900  1
  O  O78  1  0.60934700  0.89008900  0.76161000  1
  O  O79  1  0.89008900  0.76161000  0.60934700  1
  O  O80  1  0.36737800  0.89673600  0.25876800  1
  O  O81  1  0.89673600  0.25876800  0.36737800  1
  O  O82  1  0.25876800  0.36737800  0.89673600  1
  O  O83  1  0.39673600  0.86737800  0.75876800  1
  O  O84  1  0.86737800  0.75876800  0.39673600  1
  O  O85  1  0.75876800  0.39673600  0.86737800  1
  O  O86  1  0.14019500  0.88290300  0.34399400  1
  O  O87  1  0.88290300  0.34399400  0.14019500  1
  O  O88  1  0.34399400  0.14019500  0.88290300  1
  O  O89  1  0.38290300  0.64019500  0.84399400  1
  O  O90  1  0.64019500  0.84399400  0.38290300  1
  O  O91  1  0.39898900  0.64416400  0.08626900  1
