# generated using pymatgen
data_UGePt
_symmetry_space_group_name_H-M   'P 1'
_cell_length_a   4.44844900
_cell_length_b   6.90124000
_cell_length_c   7.62878700
_cell_angle_alpha   90.00000000
_cell_angle_beta   90.00000000
_cell_angle_gamma   90.00000000
_symmetry_Int_Tables_number   1
_chemical_formula_structural   UGePt
_chemical_formula_sum   'U4 Ge4 Pt4'
_cell_volume   234.20234329
_cell_formula_units_Z   4
loop_
 _symmetry_equiv_pos_site_id
 _symmetry_equiv_pos_as_xyz
  1  'x, y, z'
loop_
 _atom_site_type_symbol
 _atom_site_label
 _atom_site_symmetry_multiplicity
 _atom_site_fract_x
 _atom_site_fract_y
 _atom_site_fract_z
 _atom_site_occupancy
  U  U0  1  0.75000000  0.99282700  0.20178800  1
  U  U1  1  0.75000000  0.49282700  0.29821200  1
  U  U2  1  0.25000000  0.50717300  0.70178800  1
  U  U3  1  0.25000000  0.00717300  0.79821200  1
  Ge  Ge4  1  0.25000000  0.69630900  0.08987300  1
  Ge  Ge5  1  0.25000000  0.19630900  0.41012700  1
  Ge  Ge6  1  0.75000000  0.80369100  0.58987300  1
  Ge  Ge7  1  0.75000000  0.30369100  0.91012700  1
  Pt  Pt8  1  0.25000000  0.29485900  0.08188400  1
  Pt  Pt9  1  0.25000000  0.79485900  0.41811600  1
  Pt  Pt10  1  0.75000000  0.20514100  0.58188400  1
  Pt  Pt11  1  0.75000000  0.70514100  0.91811600  1
