# generated using pymatgen
data_K2NbCuS4
_symmetry_space_group_name_H-M   'P 1'
_cell_length_a   13.50841932
_cell_length_b   12.06708849
_cell_length_c   7.24178097
_cell_angle_alpha   84.88546082
_cell_angle_beta   62.84117037
_cell_angle_gamma   32.27336881
_symmetry_Int_Tables_number   1
_chemical_formula_structural   K2NbCuS4
_chemical_formula_sum   'K4 Nb2 Cu2 S8'
_cell_volume   437.92127288
_cell_formula_units_Z   2
loop_
 _symmetry_equiv_pos_site_id
 _symmetry_equiv_pos_as_xyz
  1  'x, y, z'
loop_
 _atom_site_type_symbol
 _atom_site_label
 _atom_site_symmetry_multiplicity
 _atom_site_fract_x
 _atom_site_fract_y
 _atom_site_fract_z
 _atom_site_occupancy
  K  K0  1  0.67852200  0.67852200  0.32147800  1
  K  K1  1  0.32147800  0.32147800  0.67852200  1
  K  K2  1  0.57147800  0.57147800  0.92852200  1
  K  K3  1  0.92852200  0.92852200  0.57147800  1
  Nb  Nb4  1  0.50000000  0.50000000  0.50000000  1
  Nb  Nb5  1  0.75000000  0.75000000  0.75000000  1
  Cu  Cu6  1  0.00000000  0.00000000  0.00000000  1
  Cu  Cu7  1  0.25000000  0.25000000  0.25000000  1
  S  S8  1  0.89872300  0.21188500  0.30039200  1
  S  S9  1  0.58900100  0.30039200  0.21188500  1
  S  S10  1  0.94960800  0.66099900  0.35127700  1
  S  S11  1  0.03811500  0.35127700  0.66099900  1
  S  S12  1  0.35127700  0.03811500  0.94960800  1
  S  S13  1  0.66099900  0.94960800  0.03811500  1
  S  S14  1  0.30039200  0.58900100  0.89872300  1
  S  S15  1  0.21188500  0.89872300  0.58900100  1
