# generated using pymatgen
data_NaSnSb
_symmetry_space_group_name_H-M   'P 1'
_cell_length_a   4.37039244
_cell_length_b   4.37039244
_cell_length_c   11.89746600
_cell_angle_alpha   90.00000000
_cell_angle_beta   90.00000000
_cell_angle_gamma   120.00000660
_symmetry_Int_Tables_number   1
_chemical_formula_structural   NaSnSb
_chemical_formula_sum   'Na2 Sn2 Sb2'
_cell_volume   196.80038645
_cell_formula_units_Z   2
loop_
 _symmetry_equiv_pos_site_id
 _symmetry_equiv_pos_as_xyz
  1  'x, y, z'
loop_
 _atom_site_type_symbol
 _atom_site_label
 _atom_site_symmetry_multiplicity
 _atom_site_fract_x
 _atom_site_fract_y
 _atom_site_fract_z
 _atom_site_occupancy
  Na  Na0  1  0.33333300  0.66666700  0.99929000  1
  Na  Na1  1  0.66666700  0.33333300  0.49929000  1
  Sn  Sn2  1  0.00000000  0.00000000  0.30501600  1
  Sn  Sn3  1  0.00000000  0.00000000  0.80501600  1
  Sb  Sb4  1  0.33333300  0.66666700  0.68019400  1
  Sb  Sb5  1  0.66666700  0.33333300  0.18019400  1
