# generated using pymatgen
data_K3TlAu5
_symmetry_space_group_name_H-M   'P 1'
_cell_length_a   11.32900639
_cell_length_b   11.32900639
_cell_length_c   11.32900639
_cell_angle_alpha   150.45982397
_cell_angle_beta   135.47959121
_cell_angle_gamma   54.33740457
_symmetry_Int_Tables_number   1
_chemical_formula_structural   K3TlAu5
_chemical_formula_sum   'K6 Tl2 Au10'
_cell_volume   499.72083724
_cell_formula_units_Z   2
loop_
 _symmetry_equiv_pos_site_id
 _symmetry_equiv_pos_as_xyz
  1  'x, y, z'
loop_
 _atom_site_type_symbol
 _atom_site_label
 _atom_site_symmetry_multiplicity
 _atom_site_fract_x
 _atom_site_fract_y
 _atom_site_fract_z
 _atom_site_occupancy
  K  K0  1  0.79466800  0.41361700  0.38105100  1
  K  K1  1  0.53256700  0.91361700  0.61894900  1
  K  K2  1  0.13085700  0.75000000  0.38085700  1
  K  K3  1  0.86914300  0.25000000  0.61914300  1
  K  K4  1  0.46743300  0.08638300  0.38105100  1
  K  K5  1  0.20533200  0.58638300  0.61894900  1
  Tl  Tl6  1  0.41590600  0.25000000  0.16590600  1
  Tl  Tl7  1  0.58409400  0.75000000  0.83409400  1
  Au  Au8  1  0.50000000  0.50000000  0.00000000  1
  Au  Au9  1  0.00000000  0.00000000  0.00000000  1
  Au  Au10  1  0.18970900  0.18970900  0.50000000  1
  Au  Au11  1  0.18970900  0.68970900  0.00000000  1
  Au  Au12  1  0.31349200  0.35618500  0.95730700  1
  Au  Au13  1  0.89887800  0.85618500  0.04269300  1
  Au  Au14  1  0.10112200  0.14381500  0.95730700  1
  Au  Au15  1  0.68650800  0.64381500  0.04269300  1
  Au  Au16  1  0.81029100  0.31029100  0.00000000  1
  Au  Au17  1  0.81029100  0.81029100  0.50000000  1
