# generated using pymatgen
data_NiAuO2
_symmetry_space_group_name_H-M   'P 1'
_cell_length_a   3.04416471
_cell_length_b   3.04426543
_cell_length_c   12.15909924
_cell_angle_alpha   90.04472098
_cell_angle_beta   89.95508500
_cell_angle_gamma   120.01556172
_symmetry_Int_Tables_number   1
_chemical_formula_structural   NiAuO2
_chemical_formula_sum   'Ni2 Au2 O4'
_cell_volume   97.56957169
_cell_formula_units_Z   2
loop_
 _symmetry_equiv_pos_site_id
 _symmetry_equiv_pos_as_xyz
  1  'x, y, z'
loop_
 _atom_site_type_symbol
 _atom_site_label
 _atom_site_symmetry_multiplicity
 _atom_site_fract_x
 _atom_site_fract_y
 _atom_site_fract_z
 _atom_site_occupancy
  Ni  Ni0  1  0.00000500  0.99999500  0.00002700  1
  Ni  Ni1  1  0.00001100  0.99999000  0.49993900  1
  Au  Au2  1  0.33338900  0.66661200  0.24989500  1
  Au  Au3  1  0.66660300  0.33339600  0.75010800  1
  O  O4  1  0.66668700  0.33330800  0.58430800  1
  O  O5  1  0.33330900  0.66669500  0.41582900  1
  O  O6  1  0.66659900  0.33340400  0.91607400  1
  O  O7  1  0.33339800  0.66660000  0.08382000  1
