# generated using pymatgen
data_LiSiB6
_symmetry_space_group_name_H-M   'P 1'
_cell_length_a   6.29309664
_cell_length_b   6.29309713
_cell_length_c   8.43052500
_cell_angle_alpha   90.00000000
_cell_angle_beta   90.00000000
_cell_angle_gamma   121.90423776
_symmetry_Int_Tables_number   1
_chemical_formula_structural   LiSiB6
_chemical_formula_sum   'Li4 Si4 B24'
_cell_volume   283.43708167
_cell_formula_units_Z   4
loop_
 _symmetry_equiv_pos_site_id
 _symmetry_equiv_pos_as_xyz
  1  'x, y, z'
loop_
 _atom_site_type_symbol
 _atom_site_label
 _atom_site_symmetry_multiplicity
 _atom_site_fract_x
 _atom_site_fract_y
 _atom_site_fract_z
 _atom_site_occupancy
  Li  Li0  1  0.32444100  0.67555900  0.66014900  1
  Li  Li1  1  0.82444100  0.17555900  0.83985100  1
  Li  Li2  1  0.17555900  0.82444100  0.16014900  1
  Li  Li3  1  0.67555900  0.32444100  0.33985100  1
  Si  Si4  1  0.66566200  0.33433800  0.62040400  1
  Si  Si5  1  0.16566200  0.83433800  0.87959700  1
  Si  Si6  1  0.83433800  0.16566200  0.12040400  1
  Si  Si7  1  0.33433800  0.66566200  0.37959700  1
  B  B8  1  0.31344300  0.15517700  0.53145000  1
  B  B9  1  0.84482300  0.68655700  0.53145000  1
  B  B10  1  0.84812800  0.15187200  0.55609400  1
  B  B11  1  0.10040700  0.89959300  0.65040600  1
  B  B12  1  0.11967800  0.19840900  0.66570700  1
  B  B13  1  0.80159100  0.88032300  0.66570700  1
  B  B14  1  0.30159100  0.38032300  0.83429300  1
  B  B15  1  0.61967700  0.69840900  0.83429300  1
  B  B16  1  0.60040700  0.39959300  0.84959500  1
  B  B17  1  0.34812800  0.65187200  0.94390600  1
  B  B18  1  0.34482200  0.18655700  0.96855000  1
  B  B19  1  0.81344300  0.65517700  0.96855000  1
  B  B20  1  0.18655700  0.34482300  0.03145100  1
  B  B21  1  0.65517700  0.81344300  0.03145100  1
  B  B22  1  0.65187200  0.34812800  0.05609400  1
  B  B23  1  0.39959300  0.60040700  0.15040500  1
  B  B24  1  0.38032200  0.30159200  0.16570700  1
  B  B25  1  0.69840900  0.61967700  0.16570700  1
  B  B26  1  0.19840800  0.11967800  0.33429300  1
  B  B27  1  0.88032200  0.80159200  0.33429300  1
  B  B28  1  0.89959300  0.10040700  0.34959500  1
  B  B29  1  0.15187200  0.84812800  0.44390600  1
  B  B30  1  0.15517700  0.31344300  0.46855000  1
  B  B31  1  0.68655700  0.84482300  0.46855000  1
