# generated using pymatgen
data_K2PAuS4
_symmetry_space_group_name_H-M   'P 1'
_cell_length_a   6.88299800
_cell_length_b   6.74274700
_cell_length_c   9.58434287
_cell_angle_alpha   86.81689895
_cell_angle_beta   90.00000000
_cell_angle_gamma   90.00000000
_symmetry_Int_Tables_number   1
_chemical_formula_structural   K2PAuS4
_chemical_formula_sum   'K4 P2 Au2 S8'
_cell_volume   444.12609991
_cell_formula_units_Z   2
loop_
 _symmetry_equiv_pos_site_id
 _symmetry_equiv_pos_as_xyz
  1  'x, y, z'
loop_
 _atom_site_type_symbol
 _atom_site_label
 _atom_site_symmetry_multiplicity
 _atom_site_fract_x
 _atom_site_fract_y
 _atom_site_fract_z
 _atom_site_occupancy
  K  K0  1  0.25000000  0.48048900  0.16295400  1
  K  K1  1  0.75000000  0.51951100  0.83704600  1
  K  K2  1  0.25000000  0.79658900  0.53932800  1
  K  K3  1  0.75000000  0.20341100  0.46067200  1
  P  P4  1  0.75000000  0.73248100  0.27990800  1
  P  P5  1  0.25000000  0.26751900  0.72009200  1
  Au  Au6  1  0.00000000  0.00000000  0.00000000  1
  Au  Au7  1  0.50000000  0.00000000  0.00000000  1
  S  S8  1  0.25000000  0.30421800  0.50894800  1
  S  S9  1  0.75000000  0.69578200  0.49105200  1
  S  S10  1  0.25000000  0.52122800  0.82360900  1
  S  S11  1  0.75000000  0.47877200  0.17639100  1
  S  S12  1  0.50091800  0.09835100  0.76361600  1
  S  S13  1  0.00091800  0.90164900  0.23638400  1
  S  S14  1  0.99908200  0.09835100  0.76361600  1
  S  S15  1  0.49908200  0.90164900  0.23638400  1
