# generated using pymatgen
data_Ce2HfS5
_symmetry_space_group_name_H-M   'P 1'
_cell_length_a   7.32349900
_cell_length_b   8.10896500
_cell_length_c   11.36455100
_cell_angle_alpha   90.00000000
_cell_angle_beta   90.00000000
_cell_angle_gamma   90.00000000
_symmetry_Int_Tables_number   1
_chemical_formula_structural   Ce2HfS5
_chemical_formula_sum   'Ce8 Hf4 S20'
_cell_volume   674.89519237
_cell_formula_units_Z   4
loop_
 _symmetry_equiv_pos_site_id
 _symmetry_equiv_pos_as_xyz
  1  'x, y, z'
loop_
 _atom_site_type_symbol
 _atom_site_label
 _atom_site_symmetry_multiplicity
 _atom_site_fract_x
 _atom_site_fract_y
 _atom_site_fract_z
 _atom_site_occupancy
  Ce  Ce0  1  0.44042100  0.99907000  0.32884100  1
  Ce  Ce1  1  0.94042100  0.00093000  0.17115900  1
  Ce  Ce2  1  0.05957900  0.50093000  0.82884100  1
  Ce  Ce3  1  0.55957900  0.49907000  0.67115900  1
  Ce  Ce4  1  0.55957900  0.00093000  0.67115900  1
  Ce  Ce5  1  0.05957900  0.99907000  0.82884100  1
  Ce  Ce6  1  0.94042100  0.49907000  0.17115900  1
  Ce  Ce7  1  0.44042100  0.50093000  0.32884100  1
  Hf  Hf8  1  0.92829800  0.75000000  0.49054600  1
  Hf  Hf9  1  0.42829800  0.25000000  0.00945400  1
  Hf  Hf10  1  0.57170200  0.75000000  0.99054600  1
  Hf  Hf11  1  0.07170200  0.25000000  0.50945400  1
  S  S12  1  0.14081300  0.75000000  0.30642100  1
  S  S13  1  0.64081300  0.25000000  0.19357900  1
  S  S14  1  0.35918700  0.75000000  0.80642100  1
  S  S15  1  0.85918700  0.25000000  0.69357900  1
  S  S16  1  0.17924000  0.53570800  0.57392400  1
  S  S17  1  0.67924000  0.46429200  0.92607600  1
  S  S18  1  0.32076000  0.96429200  0.07392400  1
  S  S19  1  0.82076000  0.03570800  0.42607600  1
  S  S20  1  0.82076000  0.46429200  0.42607600  1
  S  S21  1  0.32076000  0.53570800  0.07392400  1
  S  S22  1  0.67924000  0.03570800  0.92607600  1
  S  S23  1  0.17924000  0.96429200  0.57392400  1
  S  S24  1  0.84011700  0.75000000  0.70928500  1
  S  S25  1  0.34011700  0.25000000  0.79071500  1
  S  S26  1  0.65988300  0.75000000  0.20928500  1
  S  S27  1  0.15988300  0.25000000  0.29071500  1
  S  S28  1  0.55711100  0.75000000  0.49539000  1
  S  S29  1  0.05711100  0.25000000  0.00461000  1
  S  S30  1  0.94288900  0.75000000  0.99539000  1
  S  S31  1  0.44288900  0.25000000  0.50461000  1
