# generated using pymatgen
data_Sr2Si5N8
_symmetry_space_group_name_H-M   'P 1'
_cell_length_a   5.74893300
_cell_length_b   6.88102700
_cell_length_c   9.40482000
_cell_angle_alpha   90.00000000
_cell_angle_beta   90.00000000
_cell_angle_gamma   90.00000000
_symmetry_Int_Tables_number   1
_chemical_formula_structural   Sr2Si5N8
_chemical_formula_sum   'Sr4 Si10 N16'
_cell_volume   372.04116630
_cell_formula_units_Z   2
loop_
 _symmetry_equiv_pos_site_id
 _symmetry_equiv_pos_as_xyz
  1  'x, y, z'
loop_
 _atom_site_type_symbol
 _atom_site_label
 _atom_site_symmetry_multiplicity
 _atom_site_fract_x
 _atom_site_fract_y
 _atom_site_fract_z
 _atom_site_occupancy
  Sr  Sr0  1  0.50000000  0.11588300  0.86827500  1
  Sr  Sr1  1  0.00000000  0.88411700  0.36827500  1
  Sr  Sr2  1  0.50000000  0.12654300  0.49977300  1
  Sr  Sr3  1  0.00000000  0.87345700  0.99977300  1
  Si  Si4  1  0.50000000  0.59820700  0.40189100  1
  Si  Si5  1  0.00000000  0.40179300  0.90189100  1
  Si  Si6  1  0.50000000  0.58020800  0.96112500  1
  Si  Si7  1  0.00000000  0.41979200  0.46112500  1
  Si  Si8  1  0.50000000  0.94510900  0.17753500  1
  Si  Si9  1  0.00000000  0.05489100  0.67753500  1
  Si  Si10  1  0.75174400  0.33231000  0.18289700  1
  Si  Si11  1  0.74825600  0.66769000  0.68289700  1
  Si  Si12  1  0.24825600  0.33231000  0.18289700  1
  Si  Si13  1  0.25174400  0.66769000  0.68289700  1
  N  N14  1  0.50000000  0.57498200  0.77180200  1
  N  N15  1  0.00000000  0.42501800  0.27180200  1
  N  N16  1  0.50000000  0.82577400  0.33841900  1
  N  N17  1  0.00000000  0.17422600  0.83841900  1
  N  N18  1  0.50000000  0.41367500  0.27327200  1
  N  N19  1  0.00000000  0.58632500  0.77327200  1
  N  N20  1  0.74941200  0.55616200  0.51097900  1
  N  N21  1  0.75058800  0.44383800  0.01097900  1
  N  N22  1  0.25058800  0.55616200  0.51097900  1
  N  N23  1  0.24941200  0.44383800  0.01097900  1
  N  N24  1  0.74780600  0.08647600  0.17178900  1
  N  N25  1  0.75219400  0.91352400  0.67178900  1
  N  N26  1  0.25219400  0.08647600  0.17178900  1
  N  N27  1  0.24780600  0.91352400  0.67178900  1
  N  N28  1  0.00000000  0.19029000  0.52192800  1
  N  N29  1  0.50000000  0.80971000  0.02192800  1
