# generated using pymatgen
data_CsAu3Se2
_symmetry_space_group_name_H-M   'P 1'
_cell_length_a   6.46751896
_cell_length_b   6.46751896
_cell_length_c   5.74384700
_cell_angle_alpha   90.00000000
_cell_angle_beta   90.00000000
_cell_angle_gamma   120.00000986
_symmetry_Int_Tables_number   1
_chemical_formula_structural   CsAu3Se2
_chemical_formula_sum   'Cs1 Au3 Se2'
_cell_volume   208.06971540
_cell_formula_units_Z   1
loop_
 _symmetry_equiv_pos_site_id
 _symmetry_equiv_pos_as_xyz
  1  'x, y, z'
loop_
 _atom_site_type_symbol
 _atom_site_label
 _atom_site_symmetry_multiplicity
 _atom_site_fract_x
 _atom_site_fract_y
 _atom_site_fract_z
 _atom_site_occupancy
  Cs  Cs0  1  0.00000000  0.00000000  0.50000000  1
  Au  Au1  1  0.00000000  0.50000000  0.00000000  1
  Au  Au2  1  0.50000000  0.00000000  0.00000000  1
  Au  Au3  1  0.50000000  0.50000000  0.00000000  1
  Se  Se4  1  0.33333300  0.66666700  0.71731500  1
  Se  Se5  1  0.66666700  0.33333300  0.28268500  1
