# generated using pymatgen
data_KAuO2
_symmetry_space_group_name_H-M   'P 1'
_cell_length_a   6.43035052
_cell_length_b   6.43035052
_cell_length_c   6.10388000
_cell_angle_alpha   90.00000000
_cell_angle_beta   90.00000000
_cell_angle_gamma   139.22016147
_symmetry_Int_Tables_number   1
_chemical_formula_structural   KAuO2
_chemical_formula_sum   'K2 Au2 O4'
_cell_volume   164.85077678
_cell_formula_units_Z   2
loop_
 _symmetry_equiv_pos_site_id
 _symmetry_equiv_pos_as_xyz
  1  'x, y, z'
loop_
 _atom_site_type_symbol
 _atom_site_label
 _atom_site_symmetry_multiplicity
 _atom_site_fract_x
 _atom_site_fract_y
 _atom_site_fract_z
 _atom_site_occupancy
  K  K0  1  0.70361000  0.29639000  0.25000000  1
  K  K1  1  0.29639000  0.70361000  0.75000000  1
  Au  Au2  1  0.00275000  0.99725000  0.75000000  1
  Au  Au3  1  0.99725000  0.00275000  0.25000000  1
  O  O4  1  0.11231000  0.88769000  0.49474000  1
  O  O5  1  0.88769000  0.11231000  0.50526000  1
  O  O6  1  0.88769000  0.11231000  0.99474000  1
  O  O7  1  0.11231000  0.88769000  0.00526000  1
