# generated using pymatgen
data_Nb4Co4Si7
_symmetry_space_group_name_H-M   'P 1'
_cell_length_a   9.24978272
_cell_length_b   9.24978272
_cell_length_c   9.24978272
_cell_angle_alpha   94.21993953
_cell_angle_beta   94.21993953
_cell_angle_gamma   148.52076410
_symmetry_Int_Tables_number   1
_chemical_formula_structural   Nb4Co4Si7
_chemical_formula_sum   'Nb8 Co8 Si14'
_cell_volume   397.76400636
_cell_formula_units_Z   2
loop_
 _symmetry_equiv_pos_site_id
 _symmetry_equiv_pos_as_xyz
  1  'x, y, z'
loop_
 _atom_site_type_symbol
 _atom_site_label
 _atom_site_symmetry_multiplicity
 _atom_site_fract_x
 _atom_site_fract_y
 _atom_site_fract_z
 _atom_site_occupancy
  Nb  Nb0  1  0.30900500  0.50000000  0.80900500  1
  Nb  Nb1  1  0.69099500  0.50000000  0.19099500  1
  Nb  Nb2  1  0.50000000  0.69099500  0.19099500  1
  Nb  Nb3  1  0.50000000  0.30900500  0.80900500  1
  Nb  Nb4  1  0.13385300  0.13385300  0.26770500  1
  Nb  Nb5  1  0.86614700  0.86614700  0.73229500  1
  Nb  Nb6  1  0.13385300  0.86614700  0.00000000  1
  Nb  Nb7  1  0.86614700  0.13385300  0.00000000  1
  Co  Co8  1  0.39877600  0.89877600  0.79755100  1
  Co  Co9  1  0.10122400  0.60122400  0.20244900  1
  Co  Co10  1  0.89877600  0.10122400  0.50000000  1
  Co  Co11  1  0.60122400  0.39877600  0.50000000  1
  Co  Co12  1  0.60122400  0.10122400  0.20244900  1
  Co  Co13  1  0.89877600  0.39877600  0.79755100  1
  Co  Co14  1  0.10122400  0.89877600  0.50000000  1
  Co  Co15  1  0.39877600  0.60122400  0.50000000  1
  Si  Si16  1  0.29156700  0.29156700  0.58313400  1
  Si  Si17  1  0.70843300  0.70843300  0.41686600  1
  Si  Si18  1  0.29156700  0.70843300  0.00000000  1
  Si  Si19  1  0.70843300  0.29156700  0.00000000  1
  Si  Si20  1  0.09372600  0.50000000  0.59372600  1
  Si  Si21  1  0.90627400  0.50000000  0.40627400  1
  Si  Si22  1  0.50000000  0.90627400  0.40627400  1
  Si  Si23  1  0.50000000  0.09372600  0.59372600  1
  Si  Si24  1  0.24910600  0.24910600  0.00000000  1
  Si  Si25  1  0.75089400  0.75089400  0.00000000  1
  Si  Si26  1  0.29706900  0.00000000  0.29706900  1
  Si  Si27  1  0.70293100  0.00000000  0.70293100  1
  Si  Si28  1  0.00000000  0.70293100  0.70293100  1
  Si  Si29  1  0.00000000  0.29706900  0.29706900  1
