# generated using pymatgen
data_SmP5
_symmetry_space_group_name_H-M   'P 1'
_cell_length_a   9.53905400
_cell_length_b   5.01287400
_cell_length_c   5.42726388
_cell_angle_alpha   77.90263718
_cell_angle_beta   90.00000000
_cell_angle_gamma   90.00000000
_symmetry_Int_Tables_number   1
_chemical_formula_structural   SmP5
_chemical_formula_sum   'Sm2 P10'
_cell_volume   253.75809547
_cell_formula_units_Z   2
loop_
 _symmetry_equiv_pos_site_id
 _symmetry_equiv_pos_as_xyz
  1  'x, y, z'
loop_
 _atom_site_type_symbol
 _atom_site_label
 _atom_site_symmetry_multiplicity
 _atom_site_fract_x
 _atom_site_fract_y
 _atom_site_fract_z
 _atom_site_occupancy
  Sm  Sm0  1  0.25000000  0.99305600  0.34760300  1
  Sm  Sm1  1  0.75000000  0.00694400  0.65239700  1
  P  P2  1  0.25000000  0.71579100  0.89735900  1
  P  P3  1  0.75000000  0.28420900  0.10264100  1
  P  P4  1  0.40868800  0.38432800  0.95358000  1
  P  P5  1  0.90868800  0.61567200  0.04642000  1
  P  P6  1  0.59131200  0.61567200  0.04642000  1
  P  P7  1  0.09131200  0.38432800  0.95358000  1
  P  P8  1  0.47060400  0.28999600  0.59621900  1
  P  P9  1  0.97060400  0.71000400  0.40378100  1
  P  P10  1  0.52939600  0.71000400  0.40378100  1
  P  P11  1  0.02939600  0.28999600  0.59621900  1
