# generated using pymatgen
data_K2ZnF4
_symmetry_space_group_name_H-M   'P 1'
_cell_length_a   7.24294477
_cell_length_b   7.24294477
_cell_length_c   7.24294477
_cell_angle_alpha   146.75278193
_cell_angle_beta   146.75278193
_cell_angle_gamma   47.72996888
_symmetry_Int_Tables_number   1
_chemical_formula_structural   K2ZnF4
_chemical_formula_sum   'K2 Zn1 F4'
_cell_volume   113.75609220
_cell_formula_units_Z   1
loop_
 _symmetry_equiv_pos_site_id
 _symmetry_equiv_pos_as_xyz
  1  'x, y, z'
loop_
 _atom_site_type_symbol
 _atom_site_label
 _atom_site_symmetry_multiplicity
 _atom_site_fract_x
 _atom_site_fract_y
 _atom_site_fract_z
 _atom_site_occupancy
  K  K0  1  0.35473200  0.35473200  0.00000000  1
  K  K1  1  0.64526800  0.64526800  0.00000000  1
  Zn  Zn2  1  0.00000000  0.00000000  0.00000000  1
  F  F3  1  0.00000000  0.50000000  0.50000000  1
  F  F4  1  0.50000000  0.00000000  0.50000000  1
  F  F5  1  0.84509800  0.84509800  0.00000000  1
  F  F6  1  0.15490200  0.15490200  0.00000000  1
