# generated using pymatgen
data_Na(SnAs)2
_symmetry_space_group_name_H-M   'P 1'
_cell_length_a   9.66276559
_cell_length_b   9.66276559
_cell_length_c   9.66276568
_cell_angle_alpha   24.33446121
_cell_angle_beta   24.33446121
_cell_angle_gamma   24.33446139
_symmetry_Int_Tables_number   1
_chemical_formula_structural   Na(SnAs)2
_chemical_formula_sum   'Na1 Sn2 As2'
_cell_volume   134.65945063
_cell_formula_units_Z   1
loop_
 _symmetry_equiv_pos_site_id
 _symmetry_equiv_pos_as_xyz
  1  'x, y, z'
loop_
 _atom_site_type_symbol
 _atom_site_label
 _atom_site_symmetry_multiplicity
 _atom_site_fract_x
 _atom_site_fract_y
 _atom_site_fract_z
 _atom_site_occupancy
  Na  Na0  1  0.00000000  0.00000000  0.00000000  1
  Sn  Sn1  1  0.21093000  0.21093000  0.21093000  1
  Sn  Sn2  1  0.78907000  0.78907000  0.78907000  1
  As  As3  1  0.40706900  0.40706900  0.40706900  1
  As  As4  1  0.59293100  0.59293100  0.59293100  1
