# generated using pymatgen
data_LuH2ClO2
_symmetry_space_group_name_H-M   'P 1'
_cell_length_a   3.50420600
_cell_length_b   6.20672600
_cell_length_c   12.62622600
_cell_angle_alpha   90.00000000
_cell_angle_beta   90.00000000
_cell_angle_gamma   90.00000000
_symmetry_Int_Tables_number   1
_chemical_formula_structural   LuH2ClO2
_chemical_formula_sum   'Lu4 H8 Cl4 O8'
_cell_volume   274.61595200
_cell_formula_units_Z   4
loop_
 _symmetry_equiv_pos_site_id
 _symmetry_equiv_pos_as_xyz
  1  'x, y, z'
loop_
 _atom_site_type_symbol
 _atom_site_label
 _atom_site_symmetry_multiplicity
 _atom_site_fract_x
 _atom_site_fract_y
 _atom_site_fract_z
 _atom_site_occupancy
  Lu  Lu0  1  0.25000000  0.24944400  0.05109900  1
  Lu  Lu1  1  0.25000000  0.25055600  0.55109900  1
  Lu  Lu2  1  0.75000000  0.74944400  0.44890100  1
  Lu  Lu3  1  0.75000000  0.75055600  0.94890100  1
  H  H4  1  0.25000000  0.04593000  0.84529500  1
  H  H5  1  0.75000000  0.18576800  0.37876200  1
  H  H6  1  0.75000000  0.31423200  0.87876200  1
  H  H7  1  0.25000000  0.45407000  0.34529500  1
  H  H8  1  0.75000000  0.54593000  0.65470500  1
  H  H9  1  0.25000000  0.68576800  0.12123800  1
  H  H10  1  0.25000000  0.81423200  0.62123800  1
  H  H11  1  0.75000000  0.95407000  0.15470500  1
  Cl  Cl12  1  0.75000000  0.11631900  0.71211700  1
  Cl  Cl13  1  0.75000000  0.38368100  0.21211700  1
  Cl  Cl14  1  0.25000000  0.61631900  0.78788300  1
  Cl  Cl15  1  0.25000000  0.88368100  0.28788300  1
  O  O16  1  0.75000000  0.00154500  0.08027800  1
  O  O17  1  0.75000000  0.12932200  0.45193100  1
  O  O18  1  0.75000000  0.37067800  0.95193100  1
  O  O19  1  0.75000000  0.49845500  0.58027800  1
  O  O20  1  0.25000000  0.50154500  0.41972200  1
  O  O21  1  0.25000000  0.62932200  0.04806900  1
  O  O22  1  0.25000000  0.87067800  0.54806900  1
  O  O23  1  0.25000000  0.99845500  0.91972200  1
