# generated using pymatgen
data_Tm3(GePd)4
_symmetry_space_group_name_H-M   'P 1'
_cell_length_a   8.07550353
_cell_length_b   8.07550353
_cell_length_c   8.07550353
_cell_angle_alpha   150.25885986
_cell_angle_beta   127.87421205
_cell_angle_gamma   61.17045271
_symmetry_Int_Tables_number   1
_chemical_formula_structural   Tm3(GePd)4
_chemical_formula_sum   'Tm3 Ge4 Pd4'
_cell_volume   204.47692327
_cell_formula_units_Z   1
loop_
 _symmetry_equiv_pos_site_id
 _symmetry_equiv_pos_as_xyz
  1  'x, y, z'
loop_
 _atom_site_type_symbol
 _atom_site_label
 _atom_site_symmetry_multiplicity
 _atom_site_fract_x
 _atom_site_fract_y
 _atom_site_fract_z
 _atom_site_occupancy
  Tm  Tm0  1  0.37436800  0.87436800  0.50000000  1
  Tm  Tm1  1  0.62563200  0.12563200  0.50000000  1
  Tm  Tm2  1  0.00000000  0.00000000  0.00000000  1
  Ge  Ge3  1  0.68828400  0.50000000  0.18828400  1
  Ge  Ge4  1  0.31171600  0.50000000  0.81171600  1
  Ge  Ge5  1  0.21793500  0.21793500  0.00000000  1
  Ge  Ge6  1  0.78206500  0.78206500  0.00000000  1
  Pd  Pd7  1  0.62359800  0.32509900  0.29849900  1
  Pd  Pd8  1  0.97340000  0.67490100  0.29849900  1
  Pd  Pd9  1  0.02660000  0.32509900  0.70150100  1
  Pd  Pd10  1  0.37640200  0.67490100  0.70150100  1
