# generated using pymatgen
data_Na2CrH2F8
_symmetry_space_group_name_H-M   'P 1'
_cell_length_a   5.48001679
_cell_length_b   5.48001679
_cell_length_c   5.48620687
_cell_angle_alpha   73.79603483
_cell_angle_beta   73.79603483
_cell_angle_gamma   94.58549874
_symmetry_Int_Tables_number   1
_chemical_formula_structural   Na2CrH2F8
_chemical_formula_sum   'Na2 Cr1 H2 F8'
_cell_volume   149.68251016
_cell_formula_units_Z   1
loop_
 _symmetry_equiv_pos_site_id
 _symmetry_equiv_pos_as_xyz
  1  'x, y, z'
loop_
 _atom_site_type_symbol
 _atom_site_label
 _atom_site_symmetry_multiplicity
 _atom_site_fract_x
 _atom_site_fract_y
 _atom_site_fract_z
 _atom_site_occupancy
  Na  Na0  1  0.73757900  0.26242100  0.50000000  1
  Na  Na1  1  0.26242100  0.73757900  0.50000000  1
  Cr  Cr2  1  0.00000000  0.00000000  0.00000000  1
  H  H3  1  0.34607300  0.34607300  0.21786300  1
  H  H4  1  0.65392700  0.65392700  0.78213700  1
  F  F5  1  0.67841700  0.00170100  0.22065200  1
  F  F6  1  0.14357000  0.14357000  0.22224700  1
  F  F7  1  0.99829900  0.32158300  0.77934800  1
  F  F8  1  0.45987400  0.45987400  0.26499400  1
  F  F9  1  0.54012600  0.54012600  0.73500600  1
  F  F10  1  0.00170100  0.67841700  0.22065200  1
  F  F11  1  0.85643000  0.85643000  0.77775300  1
  F  F12  1  0.32158300  0.99829900  0.77934800  1
