# generated using pymatgen
data_NdSi
_symmetry_space_group_name_H-M   'P 1'
_cell_length_a   3.94504500
_cell_length_b   5.92417800
_cell_length_c   8.26203000
_cell_angle_alpha   90.00000000
_cell_angle_beta   90.00000000
_cell_angle_gamma   90.00000000
_symmetry_Int_Tables_number   1
_chemical_formula_structural   NdSi
_chemical_formula_sum   'Nd4 Si4'
_cell_volume   193.09313250
_cell_formula_units_Z   4
loop_
 _symmetry_equiv_pos_site_id
 _symmetry_equiv_pos_as_xyz
  1  'x, y, z'
loop_
 _atom_site_type_symbol
 _atom_site_label
 _atom_site_symmetry_multiplicity
 _atom_site_fract_x
 _atom_site_fract_y
 _atom_site_fract_z
 _atom_site_occupancy
  Nd  Nd0  1  0.25000000  0.38629000  0.67964800  1
  Nd  Nd1  1  0.75000000  0.61371000  0.32035200  1
  Nd  Nd2  1  0.75000000  0.88629000  0.82035200  1
  Nd  Nd3  1  0.25000000  0.11371000  0.17964800  1
  Si  Si4  1  0.25000000  0.87802200  0.53533500  1
  Si  Si5  1  0.75000000  0.12197800  0.46466500  1
  Si  Si6  1  0.75000000  0.37802200  0.96466500  1
  Si  Si7  1  0.25000000  0.62197800  0.03533500  1
