# generated using pymatgen
data_La4Au2O9
_symmetry_space_group_name_H-M   'P 1'
_cell_length_a   6.37924900
_cell_length_b   12.19703100
_cell_length_c   12.20597300
_cell_angle_alpha   90.00000000
_cell_angle_beta   90.00000000
_cell_angle_gamma   90.00000000
_symmetry_Int_Tables_number   1
_chemical_formula_structural   La4Au2O9
_chemical_formula_sum   'La16 Au8 O36'
_cell_volume   949.72109985
_cell_formula_units_Z   4
loop_
 _symmetry_equiv_pos_site_id
 _symmetry_equiv_pos_as_xyz
  1  'x, y, z'
loop_
 _atom_site_type_symbol
 _atom_site_label
 _atom_site_symmetry_multiplicity
 _atom_site_fract_x
 _atom_site_fract_y
 _atom_site_fract_z
 _atom_site_occupancy
  La  La0  1  0.74293500  0.08901900  0.01029900  1
  La  La1  1  0.74293500  0.41098100  0.98970100  1
  La  La2  1  0.75706500  0.58901900  0.48970100  1
  La  La3  1  0.75706500  0.91098100  0.51029900  1
  La  La4  1  0.25706500  0.91098100  0.98970100  1
  La  La5  1  0.25706500  0.58901900  0.01029900  1
  La  La6  1  0.24293500  0.41098100  0.51029900  1
  La  La7  1  0.24293500  0.08901900  0.48970100  1
  La  La8  1  0.80297900  0.26341400  0.33993200  1
  La  La9  1  0.80297900  0.23658600  0.66006800  1
  La  La10  1  0.69702100  0.76341400  0.16006800  1
  La  La11  1  0.69702100  0.73658600  0.83993200  1
  La  La12  1  0.19702100  0.73658600  0.66006800  1
  La  La13  1  0.19702100  0.76341400  0.33993200  1
  La  La14  1  0.30297900  0.23658600  0.83993200  1
  La  La15  1  0.30297900  0.26341400  0.16006800  1
  Au  Au16  1  0.57775000  0.01066200  0.27021200  1
  Au  Au17  1  0.57775000  0.48933800  0.72978800  1
  Au  Au18  1  0.92225000  0.51066200  0.22978800  1
  Au  Au19  1  0.92225000  0.98933800  0.77021200  1
  Au  Au20  1  0.42225000  0.98933800  0.72978800  1
  Au  Au21  1  0.42225000  0.51066200  0.27021200  1
  Au  Au22  1  0.07775000  0.48933800  0.77021200  1
  Au  Au23  1  0.07775000  0.01066200  0.22978800  1
  O  O24  1  0.94159800  0.44655900  0.38432600  1
  O  O25  1  0.94159800  0.05344100  0.61567400  1
  O  O26  1  0.55840200  0.94655900  0.11567400  1
  O  O27  1  0.55840200  0.55344100  0.88432600  1
  O  O28  1  0.05840200  0.55344100  0.61567400  1
  O  O29  1  0.05840200  0.94655900  0.38432600  1
  O  O30  1  0.44159800  0.05344100  0.88432600  1
  O  O31  1  0.44159800  0.44655900  0.11567400  1
  O  O32  1  0.94415200  0.35428900  0.16457100  1
  O  O33  1  0.94415200  0.14571100  0.83542900  1
  O  O34  1  0.55584800  0.85428900  0.33542900  1
  O  O35  1  0.55584800  0.64571100  0.66457100  1
  O  O36  1  0.05584800  0.64571100  0.83542900  1
  O  O37  1  0.05584800  0.85428900  0.16457100  1
  O  O38  1  0.62077800  0.15770700  0.19785400  1
  O  O39  1  0.44415200  0.14571100  0.66457100  1
  O  O40  1  0.60671600  0.08590800  0.42050000  1
  O  O41  1  0.60671600  0.41409200  0.57950000  1
  O  O42  1  0.89328400  0.58590800  0.07950000  1
  O  O43  1  0.89328400  0.91409200  0.92050000  1
  O  O44  1  0.39328400  0.91409200  0.57950000  1
  O  O45  1  0.39328400  0.58590800  0.42050000  1
  O  O46  1  0.10671600  0.41409200  0.92050000  1
  O  O47  1  0.10671600  0.08590800  0.07950000  1
  O  O48  1  0.02307200  0.25000000  0.50000000  1
  O  O49  1  0.47692800  0.75000000  0.00000000  1
  O  O50  1  0.97692800  0.75000000  0.50000000  1
  O  O51  1  0.52307200  0.25000000  0.00000000  1
  O  O52  1  0.12077800  0.15770700  0.30214600  1
  O  O53  1  0.12077800  0.34229300  0.69785400  1
  O  O54  1  0.37922200  0.65770700  0.19785400  1
  O  O55  1  0.37922200  0.84229300  0.80214600  1
  O  O56  1  0.87922200  0.84229300  0.69785400  1
  O  O57  1  0.87922200  0.65770700  0.30214600  1
  O  O58  1  0.62077800  0.34229300  0.80214600  1
  O  O59  1  0.44415200  0.35428900  0.33542900  1
