# generated using pymatgen
data_HoVB4
_symmetry_space_group_name_H-M   'P 1'
_cell_length_a   3.43638100
_cell_length_b   5.98960100
_cell_length_c   11.59536900
_cell_angle_alpha   90.00000000
_cell_angle_beta   90.00000000
_cell_angle_gamma   90.00000000
_symmetry_Int_Tables_number   1
_chemical_formula_structural   HoVB4
_chemical_formula_sum   'Ho4 V4 B16'
_cell_volume   238.66227466
_cell_formula_units_Z   4
loop_
 _symmetry_equiv_pos_site_id
 _symmetry_equiv_pos_as_xyz
  1  'x, y, z'
loop_
 _atom_site_type_symbol
 _atom_site_label
 _atom_site_symmetry_multiplicity
 _atom_site_fract_x
 _atom_site_fract_y
 _atom_site_fract_z
 _atom_site_occupancy
  Ho  Ho0  1  0.50000000  0.12412100  0.65149300  1
  Ho  Ho1  1  0.50000000  0.87587900  0.34850700  1
  Ho  Ho2  1  0.50000000  0.62412100  0.84850700  1
  Ho  Ho3  1  0.50000000  0.37587900  0.15149300  1
  V  V4  1  0.50000000  0.12729500  0.91711700  1
  V  V5  1  0.50000000  0.87270500  0.08288300  1
  V  V6  1  0.50000000  0.62729500  0.58288300  1
  V  V7  1  0.50000000  0.37270500  0.41711700  1
  B  B8  1  0.00000000  0.47720800  0.69248800  1
  B  B9  1  0.00000000  0.52279200  0.30751200  1
  B  B10  1  0.00000000  0.97720800  0.80751200  1
  B  B11  1  0.00000000  0.02279200  0.19248800  1
  B  B12  1  0.00000000  0.28653200  0.81422400  1
  B  B13  1  0.00000000  0.71346800  0.18577600  1
  B  B14  1  0.00000000  0.78653200  0.68577600  1
  B  B15  1  0.00000000  0.21346800  0.31422400  1
  B  B16  1  0.00000000  0.36476400  0.96745200  1
  B  B17  1  0.00000000  0.63523600  0.03254800  1
  B  B18  1  0.00000000  0.86476400  0.53254800  1
  B  B19  1  0.00000000  0.13523600  0.46745200  1
  B  B20  1  0.00000000  0.38523300  0.54752400  1
  B  B21  1  0.00000000  0.61476700  0.45247600  1
  B  B22  1  0.00000000  0.88523300  0.95247600  1
  B  B23  1  0.00000000  0.11476700  0.04752400  1
