# generated using pymatgen
data_RbHg2
_symmetry_space_group_name_H-M   'P 1'
_cell_length_a   7.05818849
_cell_length_b   7.05818849
_cell_length_c   7.05818849
_cell_angle_alpha   134.95432065
_cell_angle_beta   104.44035919
_cell_angle_gamma   92.52670859
_symmetry_Int_Tables_number   1
_chemical_formula_structural   RbHg2
_chemical_formula_sum   'Rb2 Hg4'
_cell_volume   228.18605487
_cell_formula_units_Z   2
loop_
 _symmetry_equiv_pos_site_id
 _symmetry_equiv_pos_as_xyz
  1  'x, y, z'
loop_
 _atom_site_type_symbol
 _atom_site_label
 _atom_site_symmetry_multiplicity
 _atom_site_fract_x
 _atom_site_fract_y
 _atom_site_fract_z
 _atom_site_occupancy
  Rb  Rb0  1  0.30238400  0.05238400  0.25000000  1
  Rb  Rb1  1  0.69761600  0.94761600  0.75000000  1
  Hg  Hg2  1  0.10319300  0.66467100  0.43852200  1
  Hg  Hg3  1  0.89680700  0.33532900  0.56147800  1
  Hg  Hg4  1  0.27385200  0.33532900  0.93852200  1
  Hg  Hg5  1  0.72614800  0.66467100  0.06147800  1
