# generated using pymatgen
data_CsSmS2
_symmetry_space_group_name_H-M   'P 1'
_cell_length_a   8.43992203
_cell_length_b   8.43992203
_cell_length_c   8.43992225
_cell_angle_alpha   28.81218991
_cell_angle_beta   28.81218991
_cell_angle_gamma   28.81219197
_symmetry_Int_Tables_number   1
_chemical_formula_structural   CsSmS2
_chemical_formula_sum   'Cs1 Sm1 S2'
_cell_volume   123.47464871
_cell_formula_units_Z   1
loop_
 _symmetry_equiv_pos_site_id
 _symmetry_equiv_pos_as_xyz
  1  'x, y, z'
loop_
 _atom_site_type_symbol
 _atom_site_label
 _atom_site_symmetry_multiplicity
 _atom_site_fract_x
 _atom_site_fract_y
 _atom_site_fract_z
 _atom_site_occupancy
  Cs  Cs0  1  0.00000000  0.00000000  0.00000000  1
  Sm  Sm1  1  0.50000000  0.50000000  0.50000000  1
  S  S2  1  0.77178700  0.77178700  0.77178700  1
  S  S3  1  0.22821300  0.22821300  0.22821300  1
