# generated using pymatgen
data_LuSiAu
_symmetry_space_group_name_H-M   'P 1'
_cell_length_a   4.32286533
_cell_length_b   4.32286533
_cell_length_c   7.17388400
_cell_angle_alpha   90.00000000
_cell_angle_beta   90.00000000
_cell_angle_gamma   119.99998975
_symmetry_Int_Tables_number   1
_chemical_formula_structural   LuSiAu
_chemical_formula_sum   'Lu2 Si2 Au2'
_cell_volume   116.09898929
_cell_formula_units_Z   2
loop_
 _symmetry_equiv_pos_site_id
 _symmetry_equiv_pos_as_xyz
  1  'x, y, z'
loop_
 _atom_site_type_symbol
 _atom_site_label
 _atom_site_symmetry_multiplicity
 _atom_site_fract_x
 _atom_site_fract_y
 _atom_site_fract_z
 _atom_site_occupancy
  Lu  Lu0  1  0.66666700  0.33333300  0.00000000  1
  Lu  Lu1  1  0.66666700  0.33333300  0.50000000  1
  Si  Si2  1  0.00000000  0.00000000  0.71148500  1
  Si  Si3  1  0.00000000  0.00000000  0.28851500  1
  Au  Au4  1  0.33333300  0.66666700  0.21870700  1
  Au  Au5  1  0.33333300  0.66666700  0.78129300  1
