# generated using pymatgen
data_ScSiPt
_symmetry_space_group_name_H-M   'P 1'
_cell_length_a   4.14885900
_cell_length_b   6.61783600
_cell_length_c   7.35588600
_cell_angle_alpha   90.00000000
_cell_angle_beta   90.00000000
_cell_angle_gamma   90.00000000
_symmetry_Int_Tables_number   1
_chemical_formula_structural   ScSiPt
_chemical_formula_sum   'Sc4 Si4 Pt4'
_cell_volume   201.96665187
_cell_formula_units_Z   4
loop_
 _symmetry_equiv_pos_site_id
 _symmetry_equiv_pos_as_xyz
  1  'x, y, z'
loop_
 _atom_site_type_symbol
 _atom_site_label
 _atom_site_symmetry_multiplicity
 _atom_site_fract_x
 _atom_site_fract_y
 _atom_site_fract_z
 _atom_site_occupancy
  Sc  Sc0  1  0.75000000  0.50108200  0.79907100  1
  Sc  Sc1  1  0.25000000  0.99891800  0.29907100  1
  Sc  Sc2  1  0.75000000  0.00108200  0.70092900  1
  Sc  Sc3  1  0.25000000  0.49891800  0.20092900  1
  Si  Si4  1  0.25000000  0.80654600  0.90587100  1
  Si  Si5  1  0.25000000  0.30654600  0.59412900  1
  Si  Si6  1  0.75000000  0.19345400  0.09412900  1
  Si  Si7  1  0.75000000  0.69345400  0.40587100  1
  Pt  Pt8  1  0.25000000  0.69925100  0.58375100  1
  Pt  Pt9  1  0.25000000  0.19925100  0.91624900  1
  Pt  Pt10  1  0.75000000  0.80074900  0.08375100  1
  Pt  Pt11  1  0.75000000  0.30074900  0.41624900  1
