# generated using pymatgen
data_Na(BH)6
_symmetry_space_group_name_H-M   'P 1'
_cell_length_a   10.59084500
_cell_length_b   6.85677700
_cell_length_c   9.34958389
_cell_angle_alpha   48.44037060
_cell_angle_beta   90.00000000
_cell_angle_gamma   90.00000000
_symmetry_Int_Tables_number   1
_chemical_formula_structural   Na(BH)6
_chemical_formula_sum   'Na4 B24 H24'
_cell_volume   508.04099988
_cell_formula_units_Z   4
loop_
 _symmetry_equiv_pos_site_id
 _symmetry_equiv_pos_as_xyz
  1  'x, y, z'
loop_
 _atom_site_type_symbol
 _atom_site_label
 _atom_site_symmetry_multiplicity
 _atom_site_fract_x
 _atom_site_fract_y
 _atom_site_fract_z
 _atom_site_occupancy
  Na  Na0  1  0.19044100  0.88755200  0.48824900  1
  Na  Na1  1  0.69044100  0.11244800  0.01175100  1
  Na  Na2  1  0.80955900  0.11244800  0.51175100  1
  Na  Na3  1  0.30955900  0.88755200  0.98824900  1
  B  B4  1  0.34863500  0.59029200  0.42553400  1
  B  B5  1  0.84863500  0.40970800  0.07446600  1
  B  B6  1  0.65136500  0.40970800  0.57446600  1
  B  B7  1  0.15136500  0.59029200  0.92553400  1
  B  B8  1  0.52171000  0.20728900  0.72055400  1
  B  B9  1  0.02171000  0.79271100  0.77944600  1
  B  B10  1  0.47829000  0.79271100  0.27944600  1
  B  B11  1  0.97829000  0.20728900  0.22055400  1
  B  B12  1  0.39731800  0.26126800  0.56945000  1
  B  B13  1  0.89731800  0.73873200  0.93055000  1
  B  B14  1  0.60268200  0.73873200  0.43055000  1
  B  B15  1  0.10268200  0.26126800  0.06945000  1
  B  B16  1  0.44244500  0.74163700  0.48722300  1
  B  B17  1  0.94244500  0.25836300  0.01277700  1
  B  B18  1  0.55755500  0.25836300  0.51277700  1
  B  B19  1  0.05755500  0.74163700  0.98722300  1
  B  B20  1  0.39259300  0.41237700  0.66767700  1
  B  B21  1  0.89259300  0.58762300  0.83232300  1
  B  B22  1  0.60740700  0.58762300  0.33232300  1
  B  B23  1  0.10740700  0.41237700  0.16767700  1
  B  B24  1  0.54874000  0.50412900  0.67113800  1
  B  B25  1  0.04874000  0.49587100  0.82886200  1
  B  B26  1  0.45126000  0.49587100  0.32886200  1
  B  B27  1  0.95126000  0.50412900  0.17113800  1
  H  H28  1  0.31632100  0.35370800  0.78602400  1
  H  H29  1  0.81632100  0.64629200  0.71397600  1
  H  H30  1  0.68367900  0.64629200  0.21397600  1
  H  H31  1  0.18367900  0.35370800  0.28602400  1
  H  H32  1  0.58098900  0.51260600  0.79055500  1
  H  H33  1  0.08098900  0.48739400  0.70944500  1
  H  H34  1  0.41901100  0.48739400  0.20944500  1
  H  H35  1  0.91901100  0.51260600  0.29055500  1
  H  H36  1  0.40522900  0.91648900  0.47616000  1
  H  H37  1  0.90522900  0.08351100  0.02384000  1
  H  H38  1  0.59477100  0.08351100  0.52384000  1
  H  H39  1  0.09477100  0.91648900  0.97616000  1
  H  H40  1  0.32417000  0.09168900  0.62043600  1
  H  H41  1  0.82417000  0.90831100  0.87956400  1
  H  H42  1  0.67583000  0.90831100  0.37956400  1
  H  H43  1  0.17583000  0.09168900  0.12043600  1
  H  H44  1  0.24045700  0.65177200  0.37304000  1
  H  H45  1  0.74045700  0.34822800  0.12696000  1
  H  H46  1  0.75954300  0.34822800  0.62696000  1
  H  H47  1  0.25954300  0.65177200  0.87304000  1
  H  H48  1  0.53792800  0.99447900  0.87593800  1
  H  H49  1  0.03792800  0.00552100  0.62406200  1
  H  H50  1  0.46207200  0.00552100  0.12406200  1
  H  H51  1  0.96207200  0.99447900  0.37593800  1
