# generated using pymatgen
data_MnSe
_symmetry_space_group_name_H-M   'P 1'
_cell_length_a   4.20458575
_cell_length_b   4.20458575
_cell_length_c   6.83922900
_cell_angle_alpha   90.00000000
_cell_angle_beta   90.00000000
_cell_angle_gamma   119.99999607
_symmetry_Int_Tables_number   1
_chemical_formula_structural   MnSe
_chemical_formula_sum   'Mn2 Se2'
_cell_volume   104.70905080
_cell_formula_units_Z   2
loop_
 _symmetry_equiv_pos_site_id
 _symmetry_equiv_pos_as_xyz
  1  'x, y, z'
loop_
 _atom_site_type_symbol
 _atom_site_label
 _atom_site_symmetry_multiplicity
 _atom_site_fract_x
 _atom_site_fract_y
 _atom_site_fract_z
 _atom_site_occupancy
  Mn  Mn0  1  0.66666700  0.33333300  0.49988400  1
  Mn  Mn1  1  0.33333300  0.66666700  0.99988400  1
  Se  Se2  1  0.66666700  0.33333300  0.87611600  1
  Se  Se3  1  0.33333300  0.66666700  0.37611600  1
