# generated using pymatgen
data_ZrSb2
_symmetry_space_group_name_H-M   'P 1'
_cell_length_a   3.92986400
_cell_length_b   10.08692900
_cell_length_c   15.11171600
_cell_angle_alpha   90.00000000
_cell_angle_beta   90.00000000
_cell_angle_gamma   90.00000000
_symmetry_Int_Tables_number   1
_chemical_formula_structural   ZrSb2
_chemical_formula_sum   'Zr8 Sb16'
_cell_volume   599.03233841
_cell_formula_units_Z   8
loop_
 _symmetry_equiv_pos_site_id
 _symmetry_equiv_pos_as_xyz
  1  'x, y, z'
loop_
 _atom_site_type_symbol
 _atom_site_label
 _atom_site_symmetry_multiplicity
 _atom_site_fract_x
 _atom_site_fract_y
 _atom_site_fract_z
 _atom_site_occupancy
  Zr  Zr0  1  0.50000000  0.66866200  0.99310300  1
  Zr  Zr1  1  0.50000000  0.33133800  0.00689700  1
  Zr  Zr2  1  0.00000000  0.16866200  0.50689700  1
  Zr  Zr3  1  0.00000000  0.83133800  0.49310300  1
  Zr  Zr4  1  0.00000000  0.97870600  0.74896200  1
  Zr  Zr5  1  0.00000000  0.02129400  0.25103800  1
  Zr  Zr6  1  0.50000000  0.47870600  0.75103800  1
  Zr  Zr7  1  0.50000000  0.52129400  0.24896200  1
  Sb  Sb8  1  0.00000000  0.88311300  0.94177300  1
  Sb  Sb9  1  0.00000000  0.11688700  0.05822700  1
  Sb  Sb10  1  0.50000000  0.38311300  0.55822700  1
  Sb  Sb11  1  0.50000000  0.61688700  0.44177300  1
  Sb  Sb12  1  0.00000000  0.66023200  0.65669800  1
  Sb  Sb13  1  0.00000000  0.33976800  0.34330200  1
  Sb  Sb14  1  0.50000000  0.16023200  0.84330200  1
  Sb  Sb15  1  0.50000000  0.83976800  0.15669800  1
  Sb  Sb16  1  0.50000000  0.76924700  0.80148800  1
  Sb  Sb17  1  0.50000000  0.23075300  0.19851200  1
  Sb  Sb18  1  0.00000000  0.26924700  0.69851200  1
  Sb  Sb19  1  0.00000000  0.73075300  0.30148800  1
  Sb  Sb20  1  0.50000000  0.98841400  0.60279400  1
  Sb  Sb21  1  0.50000000  0.01158600  0.39720600  1
  Sb  Sb22  1  0.00000000  0.48841400  0.89720600  1
  Sb  Sb23  1  0.00000000  0.51158600  0.10279400  1
