# generated using pymatgen
data_Sr2SmSbO6
_symmetry_space_group_name_H-M   'P 1'
_cell_length_a   6.00564100
_cell_length_b   5.89046300
_cell_length_c   10.23237339
_cell_angle_alpha   55.16646608
_cell_angle_beta   90.00000000
_cell_angle_gamma   90.00000000
_symmetry_Int_Tables_number   1
_chemical_formula_structural   Sr2SmSbO6
_chemical_formula_sum   'Sr4 Sm2 Sb2 O12'
_cell_volume   297.11904238
_cell_formula_units_Z   2
loop_
 _symmetry_equiv_pos_site_id
 _symmetry_equiv_pos_as_xyz
  1  'x, y, z'
loop_
 _atom_site_type_symbol
 _atom_site_label
 _atom_site_symmetry_multiplicity
 _atom_site_fract_x
 _atom_site_fract_y
 _atom_site_fract_z
 _atom_site_occupancy
  Sr  Sr0  1  0.04259300  0.23863600  0.75053200  1
  Sr  Sr1  1  0.54259300  0.76136400  0.74946800  1
  Sr  Sr2  1  0.95740700  0.76136400  0.24946800  1
  Sr  Sr3  1  0.45740700  0.23863600  0.25053200  1
  Sm  Sm4  1  0.00000000  0.50000000  0.00000000  1
  Sm  Sm5  1  0.50000000  0.50000000  0.50000000  1
  Sb  Sb6  1  0.50000000  0.00000000  0.00000000  1
  Sb  Sb7  1  0.00000000  0.00000000  0.50000000  1
  O  O8  1  0.47121000  0.32033700  0.76796700  1
  O  O9  1  0.97121000  0.67966300  0.73203300  1
  O  O10  1  0.52879000  0.67966300  0.23203300  1
  O  O11  1  0.02879000  0.32033700  0.26796700  1
  O  O12  1  0.27583300  0.13884800  0.54875900  1
  O  O13  1  0.77583300  0.86115200  0.95124100  1
  O  O14  1  0.72416700  0.86115200  0.45124100  1
  O  O15  1  0.22416700  0.13884800  0.04875900  1
  O  O16  1  0.30754500  0.77037400  0.95478700  1
  O  O17  1  0.80754500  0.22962600  0.54521300  1
  O  O18  1  0.69245500  0.22962600  0.04521300  1
  O  O19  1  0.19245500  0.77037400  0.45478700  1
