# generated using pymatgen
data_Tl(IO3)3
_symmetry_space_group_name_H-M   'P 1'
_cell_length_a   7.60251154
_cell_length_b   7.60251154
_cell_length_c   7.60251094
_cell_angle_alpha   82.49170577
_cell_angle_beta   82.49170577
_cell_angle_gamma   82.49169705
_symmetry_Int_Tables_number   1
_chemical_formula_structural   Tl(IO3)3
_chemical_formula_sum   'Tl2 I6 O18'
_cell_volume   429.01454629
_cell_formula_units_Z   2
loop_
 _symmetry_equiv_pos_site_id
 _symmetry_equiv_pos_as_xyz
  1  'x, y, z'
loop_
 _atom_site_type_symbol
 _atom_site_label
 _atom_site_symmetry_multiplicity
 _atom_site_fract_x
 _atom_site_fract_y
 _atom_site_fract_z
 _atom_site_occupancy
  Tl  Tl0  1  0.17565200  0.17565200  0.17565200  1
  Tl  Tl1  1  0.82434800  0.82434800  0.82434800  1
  I  I2  1  0.71627400  0.12507300  0.42018200  1
  I  I3  1  0.42018200  0.71627400  0.12507300  1
  I  I4  1  0.12507300  0.42018200  0.71627400  1
  I  I5  1  0.28372600  0.87492700  0.57981800  1
  I  I6  1  0.57981800  0.28372600  0.87492700  1
  I  I7  1  0.87492700  0.57981800  0.28372600  1
  O  O8  1  0.78205300  0.25731700  0.58220200  1
  O  O9  1  0.58220200  0.78205300  0.25731700  1
  O  O10  1  0.25731700  0.58220200  0.78205300  1
  O  O11  1  0.21794700  0.74268300  0.41779800  1
  O  O12  1  0.41779800  0.21794700  0.74268300  1
  O  O13  1  0.74268300  0.41779800  0.21794700  1
  O  O14  1  0.68603000  0.91450500  0.57106500  1
  O  O15  1  0.57106500  0.68603000  0.91450500  1
  O  O16  1  0.91450500  0.57106500  0.68603000  1
  O  O17  1  0.31397000  0.08549500  0.42893500  1
  O  O18  1  0.42893500  0.31397000  0.08549500  1
  O  O19  1  0.08549500  0.42893500  0.31397000  1
  O  O20  1  0.93242100  0.03987100  0.30347300  1
  O  O21  1  0.30347300  0.93242100  0.03987100  1
  O  O22  1  0.03987100  0.30347300  0.93242100  1
  O  O23  1  0.06757900  0.96012900  0.69652700  1
  O  O24  1  0.69652700  0.06757900  0.96012900  1
  O  O25  1  0.96012900  0.69652700  0.06757900  1
