# generated using pymatgen
data_HoNiGe2
_symmetry_space_group_name_H-M   'P 1'
_cell_length_a   8.64789141
_cell_length_b   8.64789141
_cell_length_c   4.17377300
_cell_angle_alpha   90.00000000
_cell_angle_beta   90.00000000
_cell_angle_gamma   152.68970190
_symmetry_Int_Tables_number   1
_chemical_formula_structural   HoNiGe2
_chemical_formula_sum   'Ho2 Ni2 Ge4'
_cell_volume   143.21267546
_cell_formula_units_Z   2
loop_
 _symmetry_equiv_pos_site_id
 _symmetry_equiv_pos_as_xyz
  1  'x, y, z'
loop_
 _atom_site_type_symbol
 _atom_site_label
 _atom_site_symmetry_multiplicity
 _atom_site_fract_x
 _atom_site_fract_y
 _atom_site_fract_z
 _atom_site_occupancy
  Ho  Ho0  1  0.10789100  0.89210900  0.25000000  1
  Ho  Ho1  1  0.89210900  0.10789100  0.75000000  1
  Ni  Ni2  1  0.32289700  0.67710300  0.25000000  1
  Ni  Ni3  1  0.67710300  0.32289700  0.75000000  1
  Ge  Ge4  1  0.25156000  0.74844000  0.75000000  1
  Ge  Ge5  1  0.45923100  0.54076900  0.25000000  1
  Ge  Ge6  1  0.54076900  0.45923100  0.75000000  1
  Ge  Ge7  1  0.74844000  0.25156000  0.25000000  1
