# generated using pymatgen
data_NaCa9Mg(PO4)7
_symmetry_space_group_name_H-M   'P 1'
_cell_length_a   13.85165445
_cell_length_b   13.85165445
_cell_length_c   13.85165464
_cell_angle_alpha   44.28118597
_cell_angle_beta   44.28118597
_cell_angle_gamma   44.28118779
_symmetry_Int_Tables_number   1
_chemical_formula_structural   NaCa9Mg(PO4)7
_chemical_formula_sum   'Na2 Ca18 Mg2 P14 O56'
_cell_volume   1177.36298459
_cell_formula_units_Z   2
loop_
 _symmetry_equiv_pos_site_id
 _symmetry_equiv_pos_as_xyz
  1  'x, y, z'
loop_
 _atom_site_type_symbol
 _atom_site_label
 _atom_site_symmetry_multiplicity
 _atom_site_fract_x
 _atom_site_fract_y
 _atom_site_fract_z
 _atom_site_occupancy
  Na  Na0  1  0.18625300  0.18625300  0.18625300  1
  Na  Na1  1  0.68625300  0.68625300  0.68625300  1
  Ca  Ca2  1  0.55694800  0.94669200  0.97020500  1
  Ca  Ca3  1  0.97020500  0.55694800  0.94669200  1
  Ca  Ca4  1  0.94669200  0.97020500  0.55694800  1
  Ca  Ca5  1  0.05694800  0.47020500  0.44669200  1
  Ca  Ca6  1  0.44669200  0.05694800  0.47020500  1
  Ca  Ca7  1  0.47020500  0.44669200  0.05694800  1
  Ca  Ca8  1  0.90615200  0.34700100  0.93828900  1
  Ca  Ca9  1  0.93828900  0.90615200  0.34700100  1
  Ca  Ca10  1  0.34700100  0.93828900  0.90615200  1
  Ca  Ca11  1  0.40615200  0.43828900  0.84700100  1
  Ca  Ca12  1  0.84700100  0.40615200  0.43828900  1
  Ca  Ca13  1  0.43828900  0.84700100  0.40615200  1
  Ca  Ca14  1  0.07462700  0.65954100  0.06217900  1
  Ca  Ca15  1  0.06217900  0.07462700  0.65954100  1
  Ca  Ca16  1  0.65954100  0.06217900  0.07462700  1
  Ca  Ca17  1  0.57462700  0.56217900  0.15954100  1
  Ca  Ca18  1  0.15954100  0.57462700  0.56217900  1
  Ca  Ca19  1  0.56217900  0.15954100  0.57462700  1
  Mg  Mg20  1  0.00009500  0.00009500  0.00009500  1
  Mg  Mg21  1  0.50009500  0.50009500  0.50009500  1
  P  P22  1  0.68619700  0.18137900  0.22394700  1
  P  P23  1  0.22394700  0.68619700  0.18137900  1
  P  P24  1  0.77152800  0.32238400  0.80902200  1
  P  P25  1  0.80902200  0.77152800  0.32238400  1
  P  P26  1  0.32238400  0.80902200  0.77152800  1
  P  P27  1  0.27152800  0.30902200  0.82238400  1
  P  P28  1  0.82238400  0.27152800  0.30902200  1
  P  P29  1  0.30902200  0.82238400  0.27152800  1
  P  P30  1  0.76516500  0.76516500  0.76516500  1
  P  P31  1  0.26516500  0.26516500  0.26516500  1
  P  P32  1  0.18137900  0.22394700  0.68619700  1
  P  P33  1  0.18619700  0.72394700  0.68137900  1
  P  P34  1  0.72394700  0.68137900  0.18619700  1
  P  P35  1  0.68137900  0.18619700  0.72394700  1
  O  O36  1  0.67134100  0.11051900  0.68871000  1
  O  O37  1  0.68871000  0.67134100  0.11051900  1
  O  O38  1  0.11051900  0.68871000  0.67134100  1
  O  O39  1  0.17134100  0.18871000  0.61051900  1
  O  O40  1  0.61051900  0.17134100  0.18871000  1
  O  O41  1  0.18871000  0.61051900  0.17134100  1
  O  O42  1  0.61378000  0.36298600  0.63517200  1
  O  O43  1  0.63517200  0.61378000  0.36298600  1
  O  O44  1  0.36298600  0.63517200  0.61378000  1
  O  O45  1  0.11378000  0.13517200  0.86298600  1
  O  O46  1  0.86298600  0.11378000  0.13517200  1
  O  O47  1  0.13517200  0.86298600  0.11378000  1
  O  O48  1  0.85130400  0.12875100  0.67070700  1
  O  O49  1  0.67070700  0.85130400  0.12875100  1
  O  O50  1  0.12875100  0.67070700  0.85130400  1
  O  O51  1  0.35130400  0.17070700  0.62875100  1
  O  O52  1  0.62875100  0.35130400  0.17070700  1
  O  O53  1  0.17070700  0.62875100  0.35130400  1
  O  O54  1  0.58591100  0.14549800  0.89714000  1
  O  O55  1  0.89714000  0.58591100  0.14549800  1
  O  O56  1  0.14549800  0.89714000  0.58591100  1
  O  O57  1  0.08591100  0.39714000  0.64549800  1
  O  O58  1  0.84734000  0.37734400  0.63488500  1
  O  O59  1  0.64549800  0.08591100  0.39714000  1
  O  O60  1  0.87092100  0.14681700  0.87851400  1
  O  O61  1  0.87851400  0.87092100  0.14681700  1
  O  O62  1  0.14681700  0.87851400  0.87092100  1
  O  O63  1  0.37092100  0.37851400  0.64681700  1
  O  O64  1  0.64681700  0.37092100  0.37851400  1
  O  O65  1  0.37851400  0.64681700  0.37092100  1
  O  O66  1  0.60936500  0.33486600  0.89016800  1
  O  O67  1  0.89016800  0.60936500  0.33486600  1
  O  O68  1  0.33486600  0.89016800  0.60936500  1
  O  O69  1  0.10936500  0.39016800  0.83486600  1
  O  O70  1  0.83486600  0.10936500  0.39016800  1
  O  O71  1  0.39016800  0.83486600  0.10936500  1
  O  O72  1  0.30650400  0.30650400  0.30650400  1
  O  O73  1  0.80650400  0.80650400  0.80650400  1
  O  O74  1  0.10946100  0.25344100  0.39095200  1
  O  O75  1  0.25344100  0.39095200  0.10946100  1
  O  O76  1  0.39095200  0.10946100  0.25344100  1
  O  O77  1  0.75344100  0.60946100  0.89095200  1
  O  O78  1  0.60946100  0.89095200  0.75344100  1
  O  O79  1  0.89095200  0.75344100  0.60946100  1
  O  O80  1  0.34953000  0.91604600  0.25272500  1
  O  O81  1  0.91604600  0.25272500  0.34953000  1
  O  O82  1  0.25272500  0.34953000  0.91604600  1
  O  O83  1  0.41604600  0.84953000  0.75272500  1
  O  O84  1  0.84953000  0.75272500  0.41604600  1
  O  O85  1  0.75272500  0.41604600  0.84953000  1
  O  O86  1  0.13488500  0.87734400  0.34734000  1
  O  O87  1  0.87734400  0.34734000  0.13488500  1
  O  O88  1  0.34734000  0.13488500  0.87734400  1
  O  O89  1  0.37734400  0.63488500  0.84734000  1
  O  O90  1  0.63488500  0.84734000  0.37734400  1
  O  O91  1  0.39714000  0.64549800  0.08591100  1
