# generated using pymatgen
data_NaSrAs
_symmetry_space_group_name_H-M   'P 1'
_cell_length_a   7.89199598
_cell_length_b   7.89199598
_cell_length_c   4.61560000
_cell_angle_alpha   90.00000000
_cell_angle_beta   90.00000000
_cell_angle_gamma   119.99999984
_symmetry_Int_Tables_number   1
_chemical_formula_structural   NaSrAs
_chemical_formula_sum   'Na3 Sr3 As3'
_cell_volume   248.96168110
_cell_formula_units_Z   3
loop_
 _symmetry_equiv_pos_site_id
 _symmetry_equiv_pos_as_xyz
  1  'x, y, z'
loop_
 _atom_site_type_symbol
 _atom_site_label
 _atom_site_symmetry_multiplicity
 _atom_site_fract_x
 _atom_site_fract_y
 _atom_site_fract_z
 _atom_site_occupancy
  Na  Na0  1  0.24179100  0.00000000  0.00000000  1
  Na  Na1  1  0.75820900  0.75820900  0.00000000  1
  Na  Na2  1  0.00000000  0.24179100  0.00000000  1
  Sr  Sr3  1  0.00000000  0.58548000  0.50000000  1
  Sr  Sr4  1  0.58548000  0.00000000  0.50000000  1
  Sr  Sr5  1  0.41452000  0.41452000  0.50000000  1
  As  As6  1  0.66666700  0.33333300  0.00000000  1
  As  As7  1  0.00000000  0.00000000  0.50000000  1
  As  As8  1  0.33333300  0.66666700  0.00000000  1
