# generated using pymatgen
data_K(ThSe3)2
_symmetry_space_group_name_H-M   'P 1'
_cell_length_a   11.75909633
_cell_length_b   11.75909633
_cell_length_c   11.75909633
_cell_angle_alpha   159.18210662
_cell_angle_beta   152.51456993
_cell_angle_gamma   34.73029153
_symmetry_Int_Tables_number   1
_chemical_formula_structural   K(ThSe3)2
_chemical_formula_sum   'K1 Th2 Se6'
_cell_volume   266.43580528
_cell_formula_units_Z   1
loop_
 _symmetry_equiv_pos_site_id
 _symmetry_equiv_pos_as_xyz
  1  'x, y, z'
loop_
 _atom_site_type_symbol
 _atom_site_label
 _atom_site_symmetry_multiplicity
 _atom_site_fract_x
 _atom_site_fract_y
 _atom_site_fract_z
 _atom_site_occupancy
  K  K0  1  0.00000000  0.00000000  0.00000000  1
  Th  Th1  1  0.32185400  0.82185400  0.50000000  1
  Th  Th2  1  0.67814600  0.17814600  0.50000000  1
  Se  Se3  1  0.22828100  0.22828100  0.00000000  1
  Se  Se4  1  0.35869400  0.60479000  0.75390500  1
  Se  Se5  1  0.64130600  0.39521000  0.24609500  1
  Se  Se6  1  0.14911500  0.39521000  0.75390500  1
  Se  Se7  1  0.85088500  0.60479000  0.24609500  1
  Se  Se8  1  0.77171900  0.77171900  0.00000000  1
