# generated using pymatgen
data_Hf3Ge2
_symmetry_space_group_name_H-M   'P 1'
_cell_length_a   7.16504900
_cell_length_b   7.16504900
_cell_length_c   3.70220000
_cell_angle_alpha   90.00000000
_cell_angle_beta   90.00000000
_cell_angle_gamma   90.00000000
_symmetry_Int_Tables_number   1
_chemical_formula_structural   Hf3Ge2
_chemical_formula_sum   'Hf6 Ge4'
_cell_volume   190.06327398
_cell_formula_units_Z   2
loop_
 _symmetry_equiv_pos_site_id
 _symmetry_equiv_pos_as_xyz
  1  'x, y, z'
loop_
 _atom_site_type_symbol
 _atom_site_label
 _atom_site_symmetry_multiplicity
 _atom_site_fract_x
 _atom_site_fract_y
 _atom_site_fract_z
 _atom_site_occupancy
  Hf  Hf0  1  0.00000000  0.00000000  0.00000000  1
  Hf  Hf1  1  0.50000000  0.50000000  0.00000000  1
  Hf  Hf2  1  0.67007500  0.17007500  0.50000000  1
  Hf  Hf3  1  0.32992500  0.82992500  0.50000000  1
  Hf  Hf4  1  0.82992500  0.67007500  0.50000000  1
  Hf  Hf5  1  0.17007500  0.32992500  0.50000000  1
  Ge  Ge6  1  0.13077500  0.63077500  0.00000000  1
  Ge  Ge7  1  0.86922500  0.36922500  0.00000000  1
  Ge  Ge8  1  0.36922500  0.13077500  0.00000000  1
  Ge  Ge9  1  0.63077500  0.86922500  0.00000000  1
