# generated using pymatgen
data_RbYS2
_symmetry_space_group_name_H-M   'P 1'
_cell_length_a   8.03374750
_cell_length_b   8.03374750
_cell_length_c   8.03374749
_cell_angle_alpha   29.44688993
_cell_angle_beta   29.44688993
_cell_angle_gamma   29.44689254
_symmetry_Int_Tables_number   1
_chemical_formula_structural   RbYS2
_chemical_formula_sum   'Rb1 Y1 S2'
_cell_volume   110.91273343
_cell_formula_units_Z   1
loop_
 _symmetry_equiv_pos_site_id
 _symmetry_equiv_pos_as_xyz
  1  'x, y, z'
loop_
 _atom_site_type_symbol
 _atom_site_label
 _atom_site_symmetry_multiplicity
 _atom_site_fract_x
 _atom_site_fract_y
 _atom_site_fract_z
 _atom_site_occupancy
  Rb  Rb0  1  0.00000000  0.00000000  0.00000000  1
  Y  Y1  1  0.50000000  0.50000000  0.50000000  1
  S  S2  1  0.76903100  0.76903100  0.76903100  1
  S  S3  1  0.23096900  0.23096900  0.23096900  1
