# generated using pymatgen
data_NdAl2Cu9
_symmetry_space_group_name_H-M   'P 1'
_cell_length_a   7.90254892
_cell_length_b   7.90254892
_cell_length_c   7.90254892
_cell_angle_alpha   100.07886515
_cell_angle_beta   100.07886515
_cell_angle_gamma   130.54106539
_symmetry_Int_Tables_number   1
_chemical_formula_structural   NdAl2Cu9
_chemical_formula_sum   'Nd2 Al4 Cu18'
_cell_volume   340.64897749
_cell_formula_units_Z   2
loop_
 _symmetry_equiv_pos_site_id
 _symmetry_equiv_pos_as_xyz
  1  'x, y, z'
loop_
 _atom_site_type_symbol
 _atom_site_label
 _atom_site_symmetry_multiplicity
 _atom_site_fract_x
 _atom_site_fract_y
 _atom_site_fract_z
 _atom_site_occupancy
  Nd  Nd0  1  0.00000000  0.00000000  0.00000000  1
  Nd  Nd1  1  0.25000000  0.75000000  0.50000000  1
  Al  Al2  1  0.62500000  0.87500000  0.25000000  1
  Al  Al3  1  0.62500000  0.37500000  0.75000000  1
  Al  Al4  1  0.62500000  0.37500000  0.25000000  1
  Al  Al5  1  0.12500000  0.37500000  0.75000000  1
  Cu  Cu6  1  0.90088100  0.57100100  0.08438800  1
  Cu  Cu7  1  0.48661300  0.81649300  0.91561200  1
  Cu  Cu8  1  0.76338700  0.17899900  0.82988000  1
  Cu  Cu9  1  0.34911900  0.93350700  0.17012000  1
  Cu  Cu10  1  0.42899900  0.09911900  0.91561200  1
  Cu  Cu11  1  0.18350700  0.51338700  0.08438800  1
  Cu  Cu12  1  0.82100100  0.23661300  0.17012000  1
  Cu  Cu13  1  0.06649300  0.65088100  0.82988000  1
  Cu  Cu14  1  0.34911900  0.17899900  0.41561200  1
  Cu  Cu15  1  0.76338700  0.93350700  0.58438800  1
  Cu  Cu16  1  0.48661300  0.57100100  0.67012000  1
  Cu  Cu17  1  0.90088100  0.81649300  0.32988000  1
  Cu  Cu18  1  0.82100100  0.65088100  0.58438800  1
  Cu  Cu19  1  0.06649300  0.23661300  0.41561200  1
  Cu  Cu20  1  0.42899900  0.51338700  0.32988000  1
  Cu  Cu21  1  0.18350700  0.09911900  0.67012000  1
  Cu  Cu22  1  0.75000000  0.25000000  0.50000000  1
  Cu  Cu23  1  0.50000000  0.50000000  0.00000000  1
