# generated using pymatgen
data_SmGe
_symmetry_space_group_name_H-M   'P 1'
_cell_length_a   5.90090513
_cell_length_b   5.90090513
_cell_length_c   4.01639400
_cell_angle_alpha   90.00000000
_cell_angle_beta   90.00000000
_cell_angle_gamma   136.11309760
_symmetry_Int_Tables_number   1
_chemical_formula_structural   SmGe
_chemical_formula_sum   'Sm2 Ge2'
_cell_volume   96.95168659
_cell_formula_units_Z   2
loop_
 _symmetry_equiv_pos_site_id
 _symmetry_equiv_pos_as_xyz
  1  'x, y, z'
loop_
 _atom_site_type_symbol
 _atom_site_label
 _atom_site_symmetry_multiplicity
 _atom_site_fract_x
 _atom_site_fract_y
 _atom_site_fract_z
 _atom_site_occupancy
  Sm  Sm0  1  0.86147100  0.13852900  0.75000000  1
  Sm  Sm1  1  0.13852900  0.86147100  0.25000000  1
  Ge  Ge2  1  0.58237600  0.41762400  0.75000000  1
  Ge  Ge3  1  0.41762400  0.58237600  0.25000000  1
