# generated using pymatgen
data_Sr(BO2)2
_symmetry_space_group_name_H-M   'P 1'
_cell_length_a   4.38473100
_cell_length_b   6.75555000
_cell_length_c   12.08202900
_cell_angle_alpha   90.00000000
_cell_angle_beta   90.00000000
_cell_angle_gamma   90.00000000
_symmetry_Int_Tables_number   1
_chemical_formula_structural   Sr(BO2)2
_chemical_formula_sum   'Sr4 B8 O16'
_cell_volume   357.88503720
_cell_formula_units_Z   4
loop_
 _symmetry_equiv_pos_site_id
 _symmetry_equiv_pos_as_xyz
  1  'x, y, z'
loop_
 _atom_site_type_symbol
 _atom_site_label
 _atom_site_symmetry_multiplicity
 _atom_site_fract_x
 _atom_site_fract_y
 _atom_site_fract_z
 _atom_site_occupancy
  Sr  Sr0  1  0.23549000  0.25000000  0.00000000  1
  Sr  Sr1  1  0.26451000  0.75000000  0.50000000  1
  Sr  Sr2  1  0.76451000  0.75000000  0.00000000  1
  Sr  Sr3  1  0.73549000  0.25000000  0.50000000  1
  B  B4  1  0.67207900  0.37568600  0.80598400  1
  B  B5  1  0.67207900  0.12431400  0.19401600  1
  B  B6  1  0.82792100  0.87568600  0.69401600  1
  B  B7  1  0.82792100  0.62431400  0.30598400  1
  B  B8  1  0.17207900  0.12431400  0.30598400  1
  B  B9  1  0.17207900  0.37568600  0.69401600  1
  B  B10  1  0.32792100  0.62431400  0.19401600  1
  B  B11  1  0.32792100  0.87568600  0.80598400  1
  O  O12  1  0.23590800  0.59146000  0.09028000  1
  O  O13  1  0.73590800  0.90854000  0.59028000  1
  O  O14  1  0.76409200  0.09146000  0.09028000  1
  O  O15  1  0.73590800  0.59146000  0.40972000  1
  O  O16  1  0.85387500  0.35393900  0.71156200  1
  O  O17  1  0.85387500  0.14606100  0.28843800  1
  O  O18  1  0.64612500  0.85393900  0.78843800  1
  O  O19  1  0.64612500  0.64606100  0.21156200  1
  O  O20  1  0.14612500  0.64606100  0.28843800  1
  O  O21  1  0.14612500  0.85393900  0.71156200  1
  O  O22  1  0.35387500  0.14606100  0.21156200  1
  O  O23  1  0.35387500  0.35393900  0.78843800  1
  O  O24  1  0.26409200  0.09146000  0.40972000  1
  O  O25  1  0.26409200  0.40854000  0.59028000  1
  O  O26  1  0.76409200  0.40854000  0.90972000  1
  O  O27  1  0.23590800  0.90854000  0.90972000  1
