# generated using pymatgen
data_SmAl
_symmetry_space_group_name_H-M   'P 1'
_cell_length_a   5.70806700
_cell_length_b   5.93882200
_cell_length_c   11.68770600
_cell_angle_alpha   90.00000000
_cell_angle_beta   90.00000000
_cell_angle_gamma   90.00000000
_symmetry_Int_Tables_number   1
_chemical_formula_structural   SmAl
_chemical_formula_sum   'Sm8 Al8'
_cell_volume   396.20381167
_cell_formula_units_Z   8
loop_
 _symmetry_equiv_pos_site_id
 _symmetry_equiv_pos_as_xyz
  1  'x, y, z'
loop_
 _atom_site_type_symbol
 _atom_site_label
 _atom_site_symmetry_multiplicity
 _atom_site_fract_x
 _atom_site_fract_y
 _atom_site_fract_z
 _atom_site_occupancy
  Sm  Sm0  1  0.25000000  0.16304200  0.51265300  1
  Sm  Sm1  1  0.25000000  0.40363800  0.83321500  1
  Sm  Sm2  1  0.25000000  0.83695800  0.01265300  1
  Sm  Sm3  1  0.25000000  0.59636200  0.33321500  1
  Sm  Sm4  1  0.75000000  0.40363800  0.66678500  1
  Sm  Sm5  1  0.75000000  0.16304200  0.98734700  1
  Sm  Sm6  1  0.75000000  0.59636200  0.16678500  1
  Sm  Sm7  1  0.75000000  0.83695800  0.48734700  1
  Al  Al8  1  0.00000000  0.92971200  0.75000000  1
  Al  Al9  1  0.00000000  0.07028800  0.25000000  1
  Al  Al10  1  0.25000000  0.66498400  0.60050000  1
  Al  Al11  1  0.25000000  0.33501600  0.10050000  1
  Al  Al12  1  0.50000000  0.92971200  0.75000000  1
  Al  Al13  1  0.50000000  0.07028800  0.25000000  1
  Al  Al14  1  0.75000000  0.66498400  0.89950000  1
  Al  Al15  1  0.75000000  0.33501600  0.39950000  1
