# generated using pymatgen
data_BaNaP
_symmetry_space_group_name_H-M   'P 1'
_cell_length_a   8.00619229
_cell_length_b   8.00619229
_cell_length_c   4.69976600
_cell_angle_alpha   90.00000000
_cell_angle_beta   90.00000000
_cell_angle_gamma   120.00000244
_symmetry_Int_Tables_number   1
_chemical_formula_structural   BaNaP
_chemical_formula_sum   'Ba3 Na3 P3'
_cell_volume   260.89087533
_cell_formula_units_Z   3
loop_
 _symmetry_equiv_pos_site_id
 _symmetry_equiv_pos_as_xyz
  1  'x, y, z'
loop_
 _atom_site_type_symbol
 _atom_site_label
 _atom_site_symmetry_multiplicity
 _atom_site_fract_x
 _atom_site_fract_y
 _atom_site_fract_z
 _atom_site_occupancy
  Ba  Ba0  1  0.00000000  0.58837400  0.50000000  1
  Ba  Ba1  1  0.58837400  0.00000000  0.50000000  1
  Ba  Ba2  1  0.41162600  0.41162600  0.50000000  1
  Na  Na3  1  0.24211700  0.00000000  0.00000000  1
  Na  Na4  1  0.75788300  0.75788300  0.00000000  1
  Na  Na5  1  0.00000000  0.24211700  0.00000000  1
  P  P6  1  0.66666700  0.33333300  0.00000000  1
  P  P7  1  0.00000000  0.00000000  0.50000000  1
  P  P8  1  0.33333300  0.66666700  0.00000000  1
