# generated using pymatgen
data_HoB4Ru
_symmetry_space_group_name_H-M   'P 1'
_cell_length_a   3.54977500
_cell_length_b   5.94847800
_cell_length_c   11.50563500
_cell_angle_alpha   90.00000000
_cell_angle_beta   90.00000000
_cell_angle_gamma   90.00000000
_symmetry_Int_Tables_number   1
_chemical_formula_structural   HoB4Ru
_chemical_formula_sum   'Ho4 B16 Ru4'
_cell_volume   242.95020996
_cell_formula_units_Z   4
loop_
 _symmetry_equiv_pos_site_id
 _symmetry_equiv_pos_as_xyz
  1  'x, y, z'
loop_
 _atom_site_type_symbol
 _atom_site_label
 _atom_site_symmetry_multiplicity
 _atom_site_fract_x
 _atom_site_fract_y
 _atom_site_fract_z
 _atom_site_occupancy
  Ho  Ho0  1  0.00000000  0.62878900  0.64983000  1
  Ho  Ho1  1  0.00000000  0.37121100  0.35017000  1
  Ho  Ho2  1  0.00000000  0.12878900  0.85017000  1
  Ho  Ho3  1  0.00000000  0.87121100  0.14983000  1
  B  B4  1  0.50000000  0.97622600  0.69199900  1
  B  B5  1  0.50000000  0.02377400  0.30800100  1
  B  B6  1  0.50000000  0.47622600  0.80800100  1
  B  B7  1  0.50000000  0.52377400  0.19199900  1
  B  B8  1  0.50000000  0.78958600  0.81439200  1
  B  B9  1  0.50000000  0.21041400  0.18560800  1
  B  B10  1  0.50000000  0.28958600  0.68560800  1
  B  B11  1  0.50000000  0.71041400  0.31439200  1
  B  B12  1  0.50000000  0.86421100  0.96978300  1
  B  B13  1  0.50000000  0.13578900  0.03021700  1
  B  B14  1  0.50000000  0.36421100  0.53021700  1
  B  B15  1  0.50000000  0.63578900  0.46978300  1
  B  B16  1  0.50000000  0.88771500  0.54687700  1
  B  B17  1  0.50000000  0.11228500  0.45312300  1
  B  B18  1  0.50000000  0.38771500  0.95312300  1
  B  B19  1  0.50000000  0.61228500  0.04687700  1
  Ru  Ru20  1  0.00000000  0.64062600  0.90723500  1
  Ru  Ru21  1  0.00000000  0.35937400  0.09276500  1
  Ru  Ru22  1  0.00000000  0.14062600  0.59276500  1
  Ru  Ru23  1  0.00000000  0.85937400  0.40723500  1
