# generated using pymatgen
data_K3La(AsO4)2
_symmetry_space_group_name_H-M   'P 1'
_cell_length_a   5.92727100
_cell_length_b   7.68881800
_cell_length_c   10.08238501
_cell_angle_alpha   88.34614954
_cell_angle_beta   90.00000000
_cell_angle_gamma   90.00000000
_symmetry_Int_Tables_number   1
_chemical_formula_structural   K3La(AsO4)2
_chemical_formula_sum   'K6 La2 As4 O16'
_cell_volume   459.30025991
_cell_formula_units_Z   2
loop_
 _symmetry_equiv_pos_site_id
 _symmetry_equiv_pos_as_xyz
  1  'x, y, z'
loop_
 _atom_site_type_symbol
 _atom_site_label
 _atom_site_symmetry_multiplicity
 _atom_site_fract_x
 _atom_site_fract_y
 _atom_site_fract_z
 _atom_site_occupancy
  K  K0  1  0.50916600  0.01066200  0.80878200  1
  K  K1  1  0.00916600  0.98933800  0.19121800  1
  K  K2  1  0.51122800  0.85956900  0.40419500  1
  K  K3  1  0.01122800  0.14043100  0.59580500  1
  K  K4  1  0.49749500  0.31533500  0.08250500  1
  K  K5  1  0.99749500  0.68466500  0.91749500  1
  La  La6  1  0.99202200  0.49026300  0.29249900  1
  La  La7  1  0.49202200  0.50973700  0.70750100  1
  As  As8  1  0.99804800  0.25307500  0.91563700  1
  As  As9  1  0.49804800  0.74692500  0.08436300  1
  As  As10  1  0.51850900  0.29818700  0.42666000  1
  As  As11  1  0.01850900  0.70181300  0.57334000  1
  O  O12  1  0.48660400  0.96681400  0.09787200  1
  O  O13  1  0.98660400  0.03318600  0.90212800  1
  O  O14  1  0.07192000  0.48359300  0.55571100  1
  O  O15  1  0.57192000  0.51640700  0.44428900  1
  O  O16  1  0.99837100  0.78800900  0.41399800  1
  O  O17  1  0.49837100  0.21199100  0.58600200  1
  O  O18  1  0.77656200  0.74722100  0.66175900  1
  O  O19  1  0.27656200  0.25277900  0.33824100  1
  O  O20  1  0.25152600  0.78263900  0.65429200  1
  O  O21  1  0.75152600  0.21736100  0.34570800  1
  O  O22  1  0.74491500  0.66716400  0.15556700  1
  O  O23  1  0.24491500  0.33283600  0.84443300  1
  O  O24  1  0.27181700  0.65203900  0.16850500  1
  O  O25  1  0.77181700  0.34796100  0.83149500  1
  O  O26  1  0.49042700  0.68066900  0.92194200  1
  O  O27  1  0.99042700  0.31933100  0.07805800  1
