# generated using pymatgen
data_CaTlCl3
_symmetry_space_group_name_H-M   'P 1'
_cell_length_a   7.23835322
_cell_length_b   7.23835322
_cell_length_c   10.34836500
_cell_angle_alpha   90.00000000
_cell_angle_beta   90.00000000
_cell_angle_gamma   146.87309775
_symmetry_Int_Tables_number   1
_chemical_formula_structural   CaTlCl3
_chemical_formula_sum   'Ca2 Tl2 Cl6'
_cell_volume   296.30410227
_cell_formula_units_Z   2
loop_
 _symmetry_equiv_pos_site_id
 _symmetry_equiv_pos_as_xyz
  1  'x, y, z'
loop_
 _atom_site_type_symbol
 _atom_site_label
 _atom_site_symmetry_multiplicity
 _atom_site_fract_x
 _atom_site_fract_y
 _atom_site_fract_z
 _atom_site_occupancy
  Ca  Ca0  1  0.00000000  0.00000000  0.50000000  1
  Ca  Ca1  1  0.00000000  0.00000000  0.00000000  1
  Tl  Tl2  1  0.74120200  0.25879800  0.75000000  1
  Tl  Tl3  1  0.25879800  0.74120200  0.25000000  1
  Cl  Cl4  1  0.62870400  0.37129600  0.44975900  1
  Cl  Cl5  1  0.37129600  0.62870400  0.94975900  1
  Cl  Cl6  1  0.62870400  0.37129600  0.05024100  1
  Cl  Cl7  1  0.37129600  0.62870400  0.55024100  1
  Cl  Cl8  1  0.06889800  0.93110200  0.75000000  1
  Cl  Cl9  1  0.93110200  0.06889800  0.25000000  1
