# generated using pymatgen
data_Y5(In2Pd)2
_symmetry_space_group_name_H-M   'P 1'
_cell_length_a   3.66229300
_cell_length_b   8.12204900
_cell_length_c   18.36984700
_cell_angle_alpha   90.00000000
_cell_angle_beta   90.00000000
_cell_angle_gamma   90.00000000
_symmetry_Int_Tables_number   1
_chemical_formula_structural   Y5(In2Pd)2
_chemical_formula_sum   'Y10 In8 Pd4'
_cell_volume   546.41703612
_cell_formula_units_Z   2
loop_
 _symmetry_equiv_pos_site_id
 _symmetry_equiv_pos_as_xyz
  1  'x, y, z'
loop_
 _atom_site_type_symbol
 _atom_site_label
 _atom_site_symmetry_multiplicity
 _atom_site_fract_x
 _atom_site_fract_y
 _atom_site_fract_z
 _atom_site_occupancy
  Y  Y0  1  0.50000000  0.24035000  0.78164700  1
  Y  Y1  1  0.50000000  0.75965000  0.21835300  1
  Y  Y2  1  0.50000000  0.25965000  0.28164700  1
  Y  Y3  1  0.50000000  0.74035000  0.71835300  1
  Y  Y4  1  0.50000000  0.11946000  0.58138500  1
  Y  Y5  1  0.50000000  0.88054000  0.41861500  1
  Y  Y6  1  0.50000000  0.38054000  0.08138500  1
  Y  Y7  1  0.50000000  0.61946000  0.91861500  1
  Y  Y8  1  0.50000000  0.00000000  0.00000000  1
  Y  Y9  1  0.50000000  0.50000000  0.50000000  1
  In  In10  1  0.00000000  0.07892900  0.15030900  1
  In  In11  1  0.00000000  0.92107100  0.84969100  1
  In  In12  1  0.00000000  0.42107100  0.65030900  1
  In  In13  1  0.00000000  0.57892900  0.34969100  1
  In  In14  1  0.00000000  0.20962400  0.43176600  1
  In  In15  1  0.00000000  0.79037600  0.56823400  1
  In  In16  1  0.00000000  0.29037600  0.93176600  1
  In  In17  1  0.00000000  0.70962400  0.06823400  1
  Pd  Pd18  1  0.00000000  0.02622000  0.69501400  1
  Pd  Pd19  1  0.00000000  0.97378000  0.30498600  1
  Pd  Pd20  1  0.00000000  0.47378000  0.19501400  1
  Pd  Pd21  1  0.00000000  0.52622000  0.80498600  1
