# generated using pymatgen
data_Sm2(CuAs)3
_symmetry_space_group_name_H-M   'P 1'
_cell_length_a   4.03825300
_cell_length_b   11.07319100
_cell_length_c   13.41960800
_cell_angle_alpha   90.00000000
_cell_angle_beta   90.00000000
_cell_angle_gamma   90.00000000
_symmetry_Int_Tables_number   1
_chemical_formula_structural   Sm2(CuAs)3
_chemical_formula_sum   'Sm8 Cu12 As12'
_cell_volume   600.07584492
_cell_formula_units_Z   4
loop_
 _symmetry_equiv_pos_site_id
 _symmetry_equiv_pos_as_xyz
  1  'x, y, z'
loop_
 _atom_site_type_symbol
 _atom_site_label
 _atom_site_symmetry_multiplicity
 _atom_site_fract_x
 _atom_site_fract_y
 _atom_site_fract_z
 _atom_site_occupancy
  Sm  Sm0  1  0.25000000  0.93045800  0.79689600  1
  Sm  Sm1  1  0.75000000  0.43045800  0.70310400  1
  Sm  Sm2  1  0.25000000  0.56954200  0.29689600  1
  Sm  Sm3  1  0.75000000  0.06954200  0.20310400  1
  Sm  Sm4  1  0.25000000  0.84210900  0.50369300  1
  Sm  Sm5  1  0.75000000  0.34210900  0.99630700  1
  Sm  Sm6  1  0.25000000  0.65789100  0.00369300  1
  Sm  Sm7  1  0.75000000  0.15789100  0.49630700  1
  Cu  Cu8  1  0.25000000  0.39298700  0.51338300  1
  Cu  Cu9  1  0.75000000  0.89298700  0.98661700  1
  Cu  Cu10  1  0.25000000  0.10701300  0.01338300  1
  Cu  Cu11  1  0.75000000  0.60701300  0.48661700  1
  Cu  Cu12  1  0.25000000  0.27622300  0.33330100  1
  Cu  Cu13  1  0.75000000  0.77622300  0.16669900  1
  Cu  Cu14  1  0.25000000  0.22377700  0.83330100  1
  Cu  Cu15  1  0.75000000  0.72377700  0.66669900  1
  Cu  Cu16  1  0.25000000  0.85821900  0.27593900  1
  Cu  Cu17  1  0.75000000  0.35821900  0.22406100  1
  Cu  Cu18  1  0.25000000  0.64178100  0.77593900  1
  Cu  Cu19  1  0.75000000  0.14178100  0.72406100  1
  As  As20  1  0.25000000  0.23483600  0.64471700  1
  As  As21  1  0.75000000  0.73483600  0.85528300  1
  As  As22  1  0.25000000  0.26516400  0.14471700  1
  As  As23  1  0.75000000  0.76516400  0.35528300  1
  As  As24  1  0.25000000  0.59989800  0.59636200  1
  As  As25  1  0.75000000  0.09989800  0.90363800  1
  As  As26  1  0.25000000  0.90010200  0.09636200  1
  As  As27  1  0.75000000  0.40010200  0.40363800  1
  As  As28  1  0.25000000  0.05708100  0.36588100  1
  As  As29  1  0.75000000  0.55708100  0.13411900  1
  As  As30  1  0.25000000  0.44291900  0.86588100  1
  As  As31  1  0.75000000  0.94291900  0.63411900  1
