# generated using pymatgen
data_K2SnSe3
_symmetry_space_group_name_H-M   'P 1'
_cell_length_a   7.00642200
_cell_length_b   7.78509605
_cell_length_c   8.88099932
_cell_angle_alpha   76.47111232
_cell_angle_beta   74.98277237
_cell_angle_gamma   67.44074595
_symmetry_Int_Tables_number   1
_chemical_formula_structural   K2SnSe3
_chemical_formula_sum   'K4 Sn2 Se6'
_cell_volume   427.13275303
_cell_formula_units_Z   2
loop_
 _symmetry_equiv_pos_site_id
 _symmetry_equiv_pos_as_xyz
  1  'x, y, z'
loop_
 _atom_site_type_symbol
 _atom_site_label
 _atom_site_symmetry_multiplicity
 _atom_site_fract_x
 _atom_site_fract_y
 _atom_site_fract_z
 _atom_site_occupancy
  K  K0  1  0.38606700  0.79338000  0.89812200  1
  K  K1  1  0.61393300  0.20662000  0.10187800  1
  K  K2  1  0.14486900  0.46952800  0.68438900  1
  K  K3  1  0.85513100  0.53047200  0.31561100  1
  Sn  Sn4  1  0.85011100  0.06291500  0.68720600  1
  Sn  Sn5  1  0.14988900  0.93708500  0.31279400  1
  Se  Se6  1  0.65220900  0.40216500  0.71471500  1
  Se  Se7  1  0.76661800  0.95616900  0.45622700  1
  Se  Se8  1  0.86126100  0.81012400  0.92247400  1
  Se  Se9  1  0.34779100  0.59783500  0.28528500  1
  Se  Se10  1  0.13873900  0.18987600  0.07752600  1
  Se  Se11  1  0.23338200  0.04383100  0.54377300  1
