# generated using pymatgen
data_SrGaSnH
_symmetry_space_group_name_H-M   'P 1'
_cell_length_a   4.48741715
_cell_length_b   4.48741715
_cell_length_c   5.16552400
_cell_angle_alpha   90.00000000
_cell_angle_beta   90.00000000
_cell_angle_gamma   119.99998742
_symmetry_Int_Tables_number   1
_chemical_formula_structural   SrGaSnH
_chemical_formula_sum   'Sr1 Ga1 Sn1 H1'
_cell_volume   90.08198689
_cell_formula_units_Z   1
loop_
 _symmetry_equiv_pos_site_id
 _symmetry_equiv_pos_as_xyz
  1  'x, y, z'
loop_
 _atom_site_type_symbol
 _atom_site_label
 _atom_site_symmetry_multiplicity
 _atom_site_fract_x
 _atom_site_fract_y
 _atom_site_fract_z
 _atom_site_occupancy
  Sr  Sr0  1  0.66666700  0.33333300  0.99845800  1
  Ga  Ga1  1  0.33333300  0.66666700  0.60088500  1
  Sn  Sn2  1  0.00000000  0.00000000  0.45056300  1
  H  H3  1  0.33333300  0.66666700  0.93939600  1
