# generated using pymatgen
data_K2AsAuS4
_symmetry_space_group_name_H-M   'P 1'
_cell_length_a   7.03688700
_cell_length_b   6.80854100
_cell_length_c   9.71565872
_cell_angle_alpha   86.69811825
_cell_angle_beta   90.00000000
_cell_angle_gamma   90.00000000
_symmetry_Int_Tables_number   1
_chemical_formula_structural   K2AsAuS4
_chemical_formula_sum   'K4 As2 Au2 S8'
_cell_volume   464.71353828
_cell_formula_units_Z   2
loop_
 _symmetry_equiv_pos_site_id
 _symmetry_equiv_pos_as_xyz
  1  'x, y, z'
loop_
 _atom_site_type_symbol
 _atom_site_label
 _atom_site_symmetry_multiplicity
 _atom_site_fract_x
 _atom_site_fract_y
 _atom_site_fract_z
 _atom_site_occupancy
  K  K0  1  0.25000000  0.79881800  0.53626300  1
  K  K1  1  0.75000000  0.52111600  0.84112900  1
  K  K2  1  0.75000000  0.20118200  0.46373700  1
  K  K3  1  0.25000000  0.47888400  0.15887100  1
  As  As4  1  0.75000000  0.72652800  0.28021300  1
  As  As5  1  0.25000000  0.27347200  0.71978700  1
  Au  Au6  1  0.00000000  0.00000000  0.00000000  1
  Au  Au7  1  0.50000000  0.00000000  0.00000000  1
  S  S8  1  0.25000000  0.30511700  0.49740800  1
  S  S9  1  0.75000000  0.69488300  0.50259200  1
  S  S10  1  0.25000000  0.54427800  0.82526100  1
  S  S11  1  0.75000000  0.45572200  0.17473900  1
  S  S12  1  0.51222500  0.09642100  0.76743100  1
  S  S13  1  0.98777500  0.09642100  0.76743100  1
  S  S14  1  0.48777500  0.90357900  0.23256900  1
  S  S15  1  0.01222500  0.90357900  0.23256900  1
