# generated using pymatgen
data_Y4C5
_symmetry_space_group_name_H-M   'P 1'
_cell_length_a   3.68341200
_cell_length_b   6.60634500
_cell_length_c   11.99585800
_cell_angle_alpha   90.00000000
_cell_angle_beta   90.00000000
_cell_angle_gamma   90.00000000
_symmetry_Int_Tables_number   1
_chemical_formula_structural   Y4C5
_chemical_formula_sum   'Y8 C10'
_cell_volume   291.90589442
_cell_formula_units_Z   2
loop_
 _symmetry_equiv_pos_site_id
 _symmetry_equiv_pos_as_xyz
  1  'x, y, z'
loop_
 _atom_site_type_symbol
 _atom_site_label
 _atom_site_symmetry_multiplicity
 _atom_site_fract_x
 _atom_site_fract_y
 _atom_site_fract_z
 _atom_site_occupancy
  Y  Y0  1  0.00000000  0.25658500  0.54286900  1
  Y  Y1  1  0.00000000  0.74341500  0.45713100  1
  Y  Y2  1  0.00000000  0.75658500  0.95713100  1
  Y  Y3  1  0.00000000  0.24341500  0.04286900  1
  Y  Y4  1  0.50000000  0.10678400  0.80402300  1
  Y  Y5  1  0.50000000  0.89321600  0.19597700  1
  Y  Y6  1  0.50000000  0.60678400  0.69597700  1
  Y  Y7  1  0.50000000  0.39321600  0.30402300  1
  C  C8  1  0.50000000  0.50000000  0.50000000  1
  C  C9  1  0.50000000  0.00000000  0.00000000  1
  C  C10  1  0.00000000  0.36043800  0.73608500  1
  C  C11  1  0.00000000  0.63956200  0.26391500  1
  C  C12  1  0.00000000  0.86043800  0.76391500  1
  C  C13  1  0.00000000  0.13956200  0.23608500  1
  C  C14  1  0.00000000  0.40250400  0.84465300  1
  C  C15  1  0.00000000  0.59749600  0.15534700  1
  C  C16  1  0.00000000  0.09749600  0.34465300  1
  C  C17  1  0.00000000  0.90250400  0.65534700  1
