# generated using pymatgen
data_Sm(BRu)2
_symmetry_space_group_name_H-M   'P 1'
_cell_length_a   6.72537959
_cell_length_b   5.95159094
_cell_length_c   5.60336730
_cell_angle_alpha   71.11469284
_cell_angle_beta   56.85682578
_cell_angle_gamma   52.02848138
_symmetry_Int_Tables_number   1
_chemical_formula_structural   Sm(BRu)2
_chemical_formula_sum   'Sm2 B4 Ru4'
_cell_volume   148.01435146
_cell_formula_units_Z   2
loop_
 _symmetry_equiv_pos_site_id
 _symmetry_equiv_pos_as_xyz
  1  'x, y, z'
loop_
 _atom_site_type_symbol
 _atom_site_label
 _atom_site_symmetry_multiplicity
 _atom_site_fract_x
 _atom_site_fract_y
 _atom_site_fract_z
 _atom_site_occupancy
  Sm  Sm0  1  0.00000000  0.00000000  0.00000000  1
  Sm  Sm1  1  0.25000000  0.25000000  0.25000000  1
  B  B2  1  0.68497600  0.31502400  0.68497600  1
  B  B3  1  0.31502400  0.68497600  0.31502400  1
  B  B4  1  0.93497600  0.56502400  0.93497600  1
  B  B5  1  0.56502400  0.93497600  0.56502400  1
  Ru  Ru6  1  0.61281700  0.61281700  0.88718300  1
  Ru  Ru7  1  0.63718300  0.63718300  0.36281700  1
  Ru  Ru8  1  0.36281700  0.36281700  0.63718300  1
  Ru  Ru9  1  0.88718300  0.88718300  0.61281700  1
