# generated using pymatgen
data_La(PO3)3
_symmetry_space_group_name_H-M   'P 1'
_cell_length_a   7.18969744
_cell_length_b   7.18969744
_cell_length_c   7.49946200
_cell_angle_alpha   90.00000000
_cell_angle_beta   90.00000000
_cell_angle_gamma   105.09570692
_symmetry_Int_Tables_number   1
_chemical_formula_structural   La(PO3)3
_chemical_formula_sum   'La2 P6 O18'
_cell_volume   374.28298407
_cell_formula_units_Z   2
loop_
 _symmetry_equiv_pos_site_id
 _symmetry_equiv_pos_as_xyz
  1  'x, y, z'
loop_
 _atom_site_type_symbol
 _atom_site_label
 _atom_site_symmetry_multiplicity
 _atom_site_fract_x
 _atom_site_fract_y
 _atom_site_fract_z
 _atom_site_occupancy
  La  La0  1  0.87051900  0.87051900  0.00000000  1
  La  La1  1  0.12948100  0.12948100  0.50000000  1
  P  P2  1  0.33140000  0.68187900  0.04839700  1
  P  P3  1  0.66860000  0.31812100  0.54839700  1
  P  P4  1  0.68187900  0.33140000  0.95160300  1
  P  P5  1  0.31812100  0.66860000  0.45160300  1
  P  P6  1  0.25151500  0.25151500  0.00000000  1
  P  P7  1  0.74848500  0.74848500  0.50000000  1
  O  O8  1  0.25182300  0.46925400  0.96164300  1
  O  O9  1  0.74817700  0.53074600  0.46164300  1
  O  O10  1  0.46925400  0.25182300  0.03835700  1
  O  O11  1  0.53074600  0.74817700  0.53835700  1
  O  O12  1  0.77713500  0.52171600  0.03416200  1
  O  O13  1  0.22286500  0.47828400  0.53416200  1
  O  O14  1  0.52171600  0.77713500  0.96583800  1
  O  O15  1  0.47828400  0.22286500  0.46583800  1
  O  O16  1  0.37294600  0.62705400  0.25000000  1
  O  O17  1  0.62705400  0.37294600  0.75000000  1
  O  O18  1  0.82681600  0.86190100  0.33375200  1
  O  O19  1  0.17318400  0.13809900  0.83375200  1
  O  O20  1  0.86190100  0.82681600  0.66624800  1
  O  O21  1  0.13809900  0.17318400  0.16624800  1
  O  O22  1  0.22150100  0.82847800  0.46136900  1
  O  O23  1  0.77849900  0.17152200  0.96136900  1
  O  O24  1  0.82847800  0.22150100  0.53863100  1
  O  O25  1  0.17152200  0.77849900  0.03863100  1
