# generated using pymatgen
data_Ni(BMo)2
_symmetry_space_group_name_H-M   'P 1'
_cell_length_a   4.52890252
_cell_length_b   4.52890252
_cell_length_c   4.52890252
_cell_angle_alpha   138.82639507
_cell_angle_beta   119.30430660
_cell_angle_gamma   75.98556907
_symmetry_Int_Tables_number   1
_chemical_formula_structural   Ni(BMo)2
_chemical_formula_sum   'Ni1 B2 Mo2'
_cell_volume   52.02352640
_cell_formula_units_Z   1
loop_
 _symmetry_equiv_pos_site_id
 _symmetry_equiv_pos_as_xyz
  1  'x, y, z'
loop_
 _atom_site_type_symbol
 _atom_site_label
 _atom_site_symmetry_multiplicity
 _atom_site_fract_x
 _atom_site_fract_y
 _atom_site_fract_z
 _atom_site_occupancy
  Ni  Ni0  1  0.00000000  0.00000000  0.00000000  1
  B  B1  1  0.70153800  0.50000000  0.20153800  1
  B  B2  1  0.29846200  0.50000000  0.79846100  1
  Mo  Mo3  1  0.69929400  0.19929400  0.50000000  1
  Mo  Mo4  1  0.30070600  0.80070600  0.50000000  1
