# generated using pymatgen
data_LuAlPd
_symmetry_space_group_name_H-M   'P 1'
_cell_length_a   7.04009515
_cell_length_b   7.04009515
_cell_length_c   4.02255100
_cell_angle_alpha   90.00000000
_cell_angle_beta   90.00000000
_cell_angle_gamma   119.99999202
_symmetry_Int_Tables_number   1
_chemical_formula_structural   LuAlPd
_chemical_formula_sum   'Lu3 Al3 Pd3'
_cell_volume   172.65902472
_cell_formula_units_Z   3
loop_
 _symmetry_equiv_pos_site_id
 _symmetry_equiv_pos_as_xyz
  1  'x, y, z'
loop_
 _atom_site_type_symbol
 _atom_site_label
 _atom_site_symmetry_multiplicity
 _atom_site_fract_x
 _atom_site_fract_y
 _atom_site_fract_z
 _atom_site_occupancy
  Lu  Lu0  1  0.58668900  0.00000000  0.00000000  1
  Lu  Lu1  1  0.00000000  0.58668900  0.00000000  1
  Lu  Lu2  1  0.41331100  0.41331100  0.00000000  1
  Al  Al3  1  0.24074700  0.00000000  0.50000000  1
  Al  Al4  1  0.00000000  0.24074700  0.50000000  1
  Al  Al5  1  0.75925300  0.75925300  0.50000000  1
  Pd  Pd6  1  0.00000000  0.00000000  0.00000000  1
  Pd  Pd7  1  0.33333300  0.66666700  0.50000000  1
  Pd  Pd8  1  0.66666700  0.33333300  0.50000000  1
