# generated using pymatgen
data_S
_symmetry_space_group_name_H-M   'P 1'
_cell_length_a   13.64206100
_cell_length_b   9.24805400
_cell_length_c   10.89684750
_cell_angle_alpha   57.00119438
_cell_angle_beta   90.00000000
_cell_angle_gamma   90.00000000
_symmetry_Int_Tables_number   1
_chemical_formula_structural   S
_chemical_formula_sum   S32
_cell_volume   1152.99785324
_cell_formula_units_Z   32
loop_
 _symmetry_equiv_pos_site_id
 _symmetry_equiv_pos_as_xyz
  1  'x, y, z'
loop_
 _atom_site_type_symbol
 _atom_site_label
 _atom_site_symmetry_multiplicity
 _atom_site_fract_x
 _atom_site_fract_y
 _atom_site_fract_z
 _atom_site_occupancy
  S  S0  1  0.34959000  0.36721400  0.31776500  1
  S  S1  1  0.34959000  0.63278600  0.18223500  1
  S  S2  1  0.65041000  0.63278600  0.68223500  1
  S  S3  1  0.65041000  0.36721400  0.81776500  1
  S  S4  1  0.57726300  0.21579500  0.34050100  1
  S  S5  1  0.57726300  0.78420500  0.15949900  1
  S  S6  1  0.42273700  0.78420500  0.65949900  1
  S  S7  1  0.42273700  0.21579500  0.84050100  1
  S  S8  1  0.44416900  0.26686900  0.23488900  1
  S  S9  1  0.44416900  0.73313100  0.26511100  1
  S  S10  1  0.55583100  0.73313100  0.76511100  1
  S  S11  1  0.55583100  0.26686900  0.73488900  1
  S  S12  1  0.67225300  0.41755400  0.21392300  1
  S  S13  1  0.67225300  0.58244600  0.28607700  1
  S  S14  1  0.32774700  0.58244600  0.78607700  1
  S  S15  1  0.32774700  0.41755400  0.71392300  1
  S  S16  1  0.79816500  0.91761500  0.86238500  1
  S  S17  1  0.79816500  0.08238500  0.63761500  1
  S  S18  1  0.20183500  0.08238500  0.13761500  1
  S  S19  1  0.20183500  0.91761500  0.36238500  1
  S  S20  1  0.02591800  0.76589100  0.98028400  1
  S  S21  1  0.02591800  0.23410900  0.51971600  1
  S  S22  1  0.97408200  0.23410900  0.01971600  1
  S  S23  1  0.97408200  0.76589100  0.48028400  1
  S  S24  1  0.89266800  0.71564300  0.92142100  1
  S  S25  1  0.89266800  0.28435700  0.57857900  1
  S  S26  1  0.10733200  0.28435700  0.07857900  1
  S  S27  1  0.10733200  0.71564300  0.42142100  1
  S  S28  1  0.12040600  0.86729900  0.80447000  1
  S  S29  1  0.12040600  0.13270100  0.69553000  1
  S  S30  1  0.87959400  0.13270100  0.19553000  1
  S  S31  1  0.87959400  0.86729900  0.30447000  1
