# generated using pymatgen
data_K2PAu
_symmetry_space_group_name_H-M   'P 1'
_cell_length_a   6.18373149
_cell_length_b   6.18373149
_cell_length_c   6.35637900
_cell_angle_alpha   90.00000000
_cell_angle_beta   90.00000000
_cell_angle_gamma   106.34486606
_symmetry_Int_Tables_number   1
_chemical_formula_structural   K2PAu
_chemical_formula_sum   'K4 P2 Au2'
_cell_volume   233.23546055
_cell_formula_units_Z   2
loop_
 _symmetry_equiv_pos_site_id
 _symmetry_equiv_pos_as_xyz
  1  'x, y, z'
loop_
 _atom_site_type_symbol
 _atom_site_label
 _atom_site_symmetry_multiplicity
 _atom_site_fract_x
 _atom_site_fract_y
 _atom_site_fract_z
 _atom_site_occupancy
  K  K0  1  0.31887600  0.97163900  0.75000000  1
  K  K1  1  0.68112400  0.02836100  0.25000000  1
  K  K2  1  0.02836100  0.68112400  0.25000000  1
  K  K3  1  0.97163900  0.31887600  0.75000000  1
  P  P4  1  0.25298300  0.25298300  0.25000000  1
  P  P5  1  0.74701700  0.74701700  0.75000000  1
  Au  Au6  1  0.50000000  0.50000000  0.50000000  1
  Au  Au7  1  0.50000000  0.50000000  0.00000000  1
