# generated using pymatgen
data_CaP3
_symmetry_space_group_name_H-M   'P 1'
_cell_length_a   5.60947200
_cell_length_b   5.63901620
_cell_length_c   5.69460509
_cell_angle_alpha   70.07614778
_cell_angle_beta   79.62722193
_cell_angle_gamma   74.68433967
_symmetry_Int_Tables_number   1
_chemical_formula_structural   CaP3
_chemical_formula_sum   'Ca2 P6'
_cell_volume   162.52798718
_cell_formula_units_Z   2
loop_
 _symmetry_equiv_pos_site_id
 _symmetry_equiv_pos_as_xyz
  1  'x, y, z'
loop_
 _atom_site_type_symbol
 _atom_site_label
 _atom_site_symmetry_multiplicity
 _atom_site_fract_x
 _atom_site_fract_y
 _atom_site_fract_z
 _atom_site_occupancy
  Ca  Ca0  1  0.67571300  0.64283900  0.64789800  1
  Ca  Ca1  1  0.32428700  0.35716100  0.35210200  1
  P  P2  1  0.59892800  0.80001400  0.10156600  1
  P  P3  1  0.40107200  0.19998600  0.89843400  1
  P  P4  1  0.00483000  0.19942700  0.99948300  1
  P  P5  1  0.99517000  0.80057300  0.00051700  1
  P  P6  1  0.12711200  0.82234500  0.60578100  1
  P  P7  1  0.87288800  0.17765500  0.39421900  1
