# generated using pymatgen
data_USe3
_symmetry_space_group_name_H-M   'P 1'
_cell_length_a   4.03483000
_cell_length_b   5.71425300
_cell_length_c   10.19710370
_cell_angle_alpha   82.50615533
_cell_angle_beta   90.00000000
_cell_angle_gamma   90.00000000
_symmetry_Int_Tables_number   1
_chemical_formula_structural   USe3
_chemical_formula_sum   'U2 Se6'
_cell_volume   233.09676616
_cell_formula_units_Z   2
loop_
 _symmetry_equiv_pos_site_id
 _symmetry_equiv_pos_as_xyz
  1  'x, y, z'
loop_
 _atom_site_type_symbol
 _atom_site_label
 _atom_site_symmetry_multiplicity
 _atom_site_fract_x
 _atom_site_fract_y
 _atom_site_fract_z
 _atom_site_occupancy
  U  U0  1  0.75000000  0.78240300  0.86067400  1
  U  U1  1  0.25000000  0.21759700  0.13932600  1
  Se  Se2  1  0.75000000  0.38433800  0.31163900  1
  Se  Se3  1  0.25000000  0.61566200  0.68836100  1
  Se  Se4  1  0.25000000  0.73469300  0.06478000  1
  Se  Se5  1  0.75000000  0.26530700  0.93522000  1
  Se  Se6  1  0.25000000  0.03111100  0.68961700  1
  Se  Se7  1  0.75000000  0.96888900  0.31038300  1
