# generated using pymatgen
data_KV5Se8
_symmetry_space_group_name_H-M   'P 1'
_cell_length_a   9.53641080
_cell_length_b   9.53641080
_cell_length_c   8.97674147
_cell_angle_alpha   76.07389359
_cell_angle_beta   76.07389359
_cell_angle_gamma   22.38312576
_symmetry_Int_Tables_number   1
_chemical_formula_structural   KV5Se8
_chemical_formula_sum   'K1 V5 Se8'
_cell_volume   301.37240460
_cell_formula_units_Z   1
loop_
 _symmetry_equiv_pos_site_id
 _symmetry_equiv_pos_as_xyz
  1  'x, y, z'
loop_
 _atom_site_type_symbol
 _atom_site_label
 _atom_site_symmetry_multiplicity
 _atom_site_fract_x
 _atom_site_fract_y
 _atom_site_fract_z
 _atom_site_occupancy
  K  K0  1  0.50000000  0.50000000  0.00000000  1
  V  V1  1  0.00000000  0.00000000  0.50000000  1
  V  V2  1  0.34914400  0.34914400  0.48958800  1
  V  V3  1  0.28778300  0.28778300  0.84881800  1
  V  V4  1  0.71221700  0.71221700  0.15118200  1
  V  V5  1  0.65085600  0.65085600  0.51041200  1
  Se  Se6  1  0.42791400  0.42791400  0.67264900  1
  Se  Se7  1  0.91298500  0.91298500  0.32057000  1
  Se  Se8  1  0.83794600  0.83794600  0.98891900  1
  Se  Se9  1  0.76036500  0.76036500  0.65656400  1
  Se  Se10  1  0.23963500  0.23963500  0.34343600  1
  Se  Se11  1  0.16205400  0.16205400  0.01108100  1
  Se  Se12  1  0.08701500  0.08701500  0.67943000  1
  Se  Se13  1  0.57208600  0.57208600  0.32735100  1
