# generated using pymatgen
data_Cs2BrCl6F
_symmetry_space_group_name_H-M   'P 1'
_cell_length_a   7.39106757
_cell_length_b   7.39106757
_cell_length_c   7.39106757
_cell_angle_alpha   60.00000000
_cell_angle_beta   60.00000000
_cell_angle_gamma   60.00000000
_symmetry_Int_Tables_number   1
_chemical_formula_structural   Cs2BrCl6F
_chemical_formula_sum   'Cs2 Br1 Cl6 F1'
_cell_volume   285.50026812
_cell_formula_units_Z   1
loop_
 _symmetry_equiv_pos_site_id
 _symmetry_equiv_pos_as_xyz
  1  'x, y, z'
loop_
 _atom_site_type_symbol
 _atom_site_label
 _atom_site_symmetry_multiplicity
 _atom_site_fract_x
 _atom_site_fract_y
 _atom_site_fract_z
 _atom_site_occupancy
  Cs  Cs0  1  0.25000000  0.25000000  0.25000000  1
  Cs  Cs1  1  0.75000000  0.75000000  0.75000000  1
  Br  Br2  1  0.00000000  0.00000000  0.00000000  1
  Cl  Cl3  1  0.23713900  0.76286100  0.76286100  1
  Cl  Cl4  1  0.23713900  0.76286100  0.23713900  1
  Cl  Cl5  1  0.76286100  0.23713900  0.76286100  1
  Cl  Cl6  1  0.76286100  0.76286100  0.23713900  1
  Cl  Cl7  1  0.23713900  0.23713900  0.76286100  1
  Cl  Cl8  1  0.76286100  0.23713900  0.23713900  1
  F  F9  1  0.50000000  0.50000000  0.50000000  1
