# generated using pymatgen
data_SrGe4O9
_symmetry_space_group_name_H-M   'P 1'
_cell_length_a   11.50843469
_cell_length_b   11.50843469
_cell_length_c   4.83775500
_cell_angle_alpha   90.00000000
_cell_angle_beta   90.00000000
_cell_angle_gamma   120.00000397
_symmetry_Int_Tables_number   1
_chemical_formula_structural   SrGe4O9
_chemical_formula_sum   'Sr3 Ge12 O27'
_cell_volume   554.89012976
_cell_formula_units_Z   3
loop_
 _symmetry_equiv_pos_site_id
 _symmetry_equiv_pos_as_xyz
  1  'x, y, z'
loop_
 _atom_site_type_symbol
 _atom_site_label
 _atom_site_symmetry_multiplicity
 _atom_site_fract_x
 _atom_site_fract_y
 _atom_site_fract_z
 _atom_site_occupancy
  Sr  Sr0  1  0.67288500  0.67288500  0.00000000  1
  Sr  Sr1  1  0.00000000  0.32711500  0.00000000  1
  Sr  Sr2  1  0.32711500  0.00000000  0.00000000  1
  Ge  Ge3  1  0.34103800  0.49116100  0.59878000  1
  Ge  Ge4  1  0.50883900  0.84987700  0.59878000  1
  Ge  Ge5  1  0.15012300  0.65896200  0.59878000  1
  Ge  Ge6  1  0.84987700  0.50883900  0.40122000  1
  Ge  Ge7  1  0.65896200  0.15012300  0.40122000  1
  Ge  Ge8  1  0.49116100  0.34103800  0.40122000  1
  Ge  Ge9  1  0.17967600  0.17967600  0.50000000  1
  Ge  Ge10  1  0.00000000  0.82032400  0.50000000  1
  Ge  Ge11  1  0.82032400  0.00000000  0.50000000  1
  Ge  Ge12  1  0.66666700  0.33333300  0.89422000  1
  Ge  Ge13  1  0.33333300  0.66666700  0.10578000  1
  Ge  Ge14  1  0.00000000  0.00000000  0.00000000  1
  O  O15  1  0.24943600  0.51013400  0.32701200  1
  O  O16  1  0.48986600  0.73930200  0.32701200  1
  O  O17  1  0.26069800  0.75056400  0.32701200  1
  O  O18  1  0.73930200  0.48986600  0.67298800  1
  O  O19  1  0.75056400  0.26069800  0.67298800  1
  O  O20  1  0.51013400  0.24943600  0.67298800  1
  O  O21  1  0.21430300  0.32535400  0.70452400  1
  O  O22  1  0.67464600  0.88894900  0.70452400  1
  O  O23  1  0.11105100  0.78569700  0.70452400  1
  O  O24  1  0.88894900  0.67464600  0.29547600  1
  O  O25  1  0.78569700  0.11105100  0.29547600  1
  O  O26  1  0.32535400  0.21430300  0.29547600  1
  O  O27  1  0.06084400  0.15518600  0.23715300  1
  O  O28  1  0.84481400  0.90565800  0.23715300  1
  O  O29  1  0.09434200  0.93915600  0.23715300  1
  O  O30  1  0.51063600  0.00000000  0.50000000  1
  O  O31  1  0.00000000  0.51063600  0.50000000  1
  O  O32  1  0.48936400  0.48936400  0.50000000  1
  O  O33  1  0.60247500  0.42318100  0.12333900  1
  O  O34  1  0.57681900  0.17929400  0.12333900  1
  O  O35  1  0.82070600  0.39752500  0.12333900  1
  O  O36  1  0.17929400  0.57681900  0.87666100  1
  O  O37  1  0.39752500  0.82070600  0.87666100  1
  O  O38  1  0.42318100  0.60247500  0.87666100  1
  O  O39  1  0.15518600  0.06084400  0.76284700  1
  O  O40  1  0.93915600  0.09434200  0.76284700  1
  O  O41  1  0.90565800  0.84481400  0.76284700  1
