# generated using pymatgen
data_Ba2Si5N8
_symmetry_space_group_name_H-M   'P 1'
_cell_length_a   5.82923700
_cell_length_b   7.02383000
_cell_length_c   9.46415800
_cell_angle_alpha   90.00000000
_cell_angle_beta   90.00000000
_cell_angle_gamma   90.00000000
_symmetry_Int_Tables_number   1
_chemical_formula_structural   Ba2Si5N8
_chemical_formula_sum   'Ba4 Si10 N16'
_cell_volume   387.49641289
_cell_formula_units_Z   2
loop_
 _symmetry_equiv_pos_site_id
 _symmetry_equiv_pos_as_xyz
  1  'x, y, z'
loop_
 _atom_site_type_symbol
 _atom_site_label
 _atom_site_symmetry_multiplicity
 _atom_site_fract_x
 _atom_site_fract_y
 _atom_site_fract_z
 _atom_site_occupancy
  Ba  Ba0  1  0.50000000  0.12103600  0.13136900  1
  Ba  Ba1  1  0.00000000  0.87896400  0.63136900  1
  Ba  Ba2  1  0.50000000  0.14444000  0.50045000  1
  Ba  Ba3  1  0.00000000  0.85556000  0.00045000  1
  Si  Si4  1  0.50000000  0.60030900  0.60360900  1
  Si  Si5  1  0.00000000  0.39969100  0.10360900  1
  Si  Si6  1  0.50000000  0.58075200  0.03932700  1
  Si  Si7  1  0.00000000  0.41924800  0.53932700  1
  Si  Si8  1  0.50000000  0.94750000  0.82245500  1
  Si  Si9  1  0.00000000  0.05250000  0.32245500  1
  Si  Si10  1  0.75063700  0.33571500  0.82091600  1
  Si  Si11  1  0.74936300  0.66428500  0.32091600  1
  Si  Si12  1  0.24936300  0.33571500  0.82091600  1
  Si  Si13  1  0.25063700  0.66428500  0.32091600  1
  N  N14  1  0.50000000  0.58207000  0.22945300  1
  N  N15  1  0.00000000  0.41793000  0.72945300  1
  N  N16  1  0.50000000  0.82433800  0.66497500  1
  N  N17  1  0.00000000  0.17566200  0.16497500  1
  N  N18  1  0.50000000  0.42374900  0.73550500  1
  N  N19  1  0.00000000  0.57625100  0.23550500  1
  N  N20  1  0.74672900  0.55398300  0.49326600  1
  N  N21  1  0.75327100  0.44601700  0.99326600  1
  N  N22  1  0.25327100  0.55398300  0.49326600  1
  N  N23  1  0.24672900  0.44601700  0.99326600  1
  N  N24  1  0.73826000  0.09444600  0.83039900  1
  N  N25  1  0.76174000  0.90555400  0.33039900  1
  N  N26  1  0.26174000  0.09444600  0.83039900  1
  N  N27  1  0.23826000  0.90555400  0.33039900  1
  N  N28  1  0.00000000  0.19840700  0.47073700  1
  N  N29  1  0.50000000  0.80159300  0.97073700  1
