# generated using pymatgen
data_TaNi2Te3
_symmetry_space_group_name_H-M   'P 1'
_cell_length_a   3.71615700
_cell_length_b   7.86020500
_cell_length_c   10.53373639
_cell_angle_alpha   69.68646167
_cell_angle_beta   90.00000000
_cell_angle_gamma   90.00000000
_symmetry_Int_Tables_number   1
_chemical_formula_structural   TaNi2Te3
_chemical_formula_sum   'Ta2 Ni4 Te6'
_cell_volume   288.55181527
_cell_formula_units_Z   2
loop_
 _symmetry_equiv_pos_site_id
 _symmetry_equiv_pos_as_xyz
  1  'x, y, z'
loop_
 _atom_site_type_symbol
 _atom_site_label
 _atom_site_symmetry_multiplicity
 _atom_site_fract_x
 _atom_site_fract_y
 _atom_site_fract_z
 _atom_site_occupancy
  Ta  Ta0  1  0.25000000  0.78828400  0.69929700  1
  Ta  Ta1  1  0.75000000  0.21171600  0.30070300  1
  Ni  Ni2  1  0.25000000  0.40464700  0.09190900  1
  Ni  Ni3  1  0.75000000  0.59535300  0.90809100  1
  Ni  Ni4  1  0.75000000  0.03783800  0.56566700  1
  Ni  Ni5  1  0.25000000  0.96216200  0.43433300  1
  Te  Te6  1  0.75000000  0.94289300  0.82641500  1
  Te  Te7  1  0.25000000  0.05710700  0.17358500  1
  Te  Te8  1  0.75000000  0.57687500  0.15801500  1
  Te  Te9  1  0.25000000  0.42312500  0.84198500  1
  Te  Te10  1  0.25000000  0.27621600  0.49237400  1
  Te  Te11  1  0.75000000  0.72378400  0.50762600  1
