# generated using pymatgen
data_Na8TiAs4
_symmetry_space_group_name_H-M   'P 1'
_cell_length_a   9.79389420
_cell_length_b   9.79389420
_cell_length_c   9.79389420
_cell_angle_alpha   60.00000000
_cell_angle_beta   60.00000000
_cell_angle_gamma   60.00000000
_symmetry_Int_Tables_number   1
_chemical_formula_structural   Na8TiAs4
_chemical_formula_sum   'Na16 Ti2 As8'
_cell_volume   664.28007515
_cell_formula_units_Z   2
loop_
 _symmetry_equiv_pos_site_id
 _symmetry_equiv_pos_as_xyz
  1  'x, y, z'
loop_
 _atom_site_type_symbol
 _atom_site_label
 _atom_site_symmetry_multiplicity
 _atom_site_fract_x
 _atom_site_fract_y
 _atom_site_fract_z
 _atom_site_occupancy
  Na  Na0  1  0.62500000  0.62500000  0.12500000  1
  Na  Na1  1  0.62500000  0.12500000  0.62500000  1
  Na  Na2  1  0.12500000  0.62500000  0.62500000  1
  Na  Na3  1  0.62500000  0.62500000  0.62500000  1
  Na  Na4  1  0.02933100  0.47066900  0.47066900  1
  Na  Na5  1  0.77933100  0.22066900  0.22066900  1
  Na  Na6  1  0.47066900  0.02933100  0.47066900  1
  Na  Na7  1  0.47066900  0.47066900  0.02933100  1
  Na  Na8  1  0.02933100  0.02933100  0.47066900  1
  Na  Na9  1  0.02933100  0.47066900  0.02933100  1
  Na  Na10  1  0.47066900  0.02933100  0.02933100  1
  Na  Na11  1  0.77933100  0.22066900  0.77933100  1
  Na  Na12  1  0.22066900  0.77933100  0.22066900  1
  Na  Na13  1  0.22066900  0.22066900  0.77933100  1
  Na  Na14  1  0.77933100  0.77933100  0.22066900  1
  Na  Na15  1  0.22066900  0.77933100  0.77933100  1
  Ti  Ti16  1  0.75000000  0.75000000  0.75000000  1
  Ti  Ti17  1  0.50000000  0.50000000  0.50000000  1
  As  As18  1  0.85490900  0.85490900  0.43527400  1
  As  As19  1  0.85490900  0.43527400  0.85490900  1
  As  As20  1  0.39509100  0.39509100  0.81472600  1
  As  As21  1  0.39509100  0.81472600  0.39509100  1
  As  As22  1  0.81472600  0.39509100  0.39509100  1
  As  As23  1  0.85490900  0.85490900  0.85490900  1
  As  As24  1  0.43527400  0.85490900  0.85490900  1
  As  As25  1  0.39509100  0.39509100  0.39509100  1
