# generated using pymatgen
data_AlAg2
_symmetry_space_group_name_H-M   'P 1'
_cell_length_a   5.10979643
_cell_length_b   5.10979643
_cell_length_c   4.56911300
_cell_angle_alpha   90.00000000
_cell_angle_beta   90.00000000
_cell_angle_gamma   120.16051651
_symmetry_Int_Tables_number   1
_chemical_formula_structural   AlAg2
_chemical_formula_sum   'Al2 Ag4'
_cell_volume   103.14899335
_cell_formula_units_Z   2
loop_
 _symmetry_equiv_pos_site_id
 _symmetry_equiv_pos_as_xyz
  1  'x, y, z'
loop_
 _atom_site_type_symbol
 _atom_site_label
 _atom_site_symmetry_multiplicity
 _atom_site_fract_x
 _atom_site_fract_y
 _atom_site_fract_z
 _atom_site_occupancy
  Al  Al0  1  0.17328500  0.17328500  0.75000000  1
  Al  Al1  1  0.82671500  0.82671500  0.25000000  1
  Ag  Ag2  1  0.52225800  0.84323300  0.75000000  1
  Ag  Ag3  1  0.84323300  0.52225800  0.75000000  1
  Ag  Ag4  1  0.15676700  0.47774200  0.25000000  1
  Ag  Ag5  1  0.47774200  0.15676700  0.25000000  1
