# generated using pymatgen
data_Yb2C3
_symmetry_space_group_name_H-M   'P 1'
_cell_length_a   7.22919729
_cell_length_b   7.22919729
_cell_length_c   7.22919729
_cell_angle_alpha   109.47122063
_cell_angle_beta   109.47122063
_cell_angle_gamma   109.47122063
_symmetry_Int_Tables_number   1
_chemical_formula_structural   Yb2C3
_chemical_formula_sum   'Yb8 C12'
_cell_volume   290.83611867
_cell_formula_units_Z   4
loop_
 _symmetry_equiv_pos_site_id
 _symmetry_equiv_pos_as_xyz
  1  'x, y, z'
loop_
 _atom_site_type_symbol
 _atom_site_label
 _atom_site_symmetry_multiplicity
 _atom_site_fract_x
 _atom_site_fract_y
 _atom_site_fract_z
 _atom_site_occupancy
  Yb  Yb0  1  0.61310500  0.61310500  0.61310500  1
  Yb  Yb1  1  0.50000000  0.00000000  0.38689500  1
  Yb  Yb2  1  0.00000000  0.38689500  0.50000000  1
  Yb  Yb3  1  0.38689500  0.50000000  0.00000000  1
  Yb  Yb4  1  0.00000000  0.88689500  0.50000000  1
  Yb  Yb5  1  0.88689500  0.50000000  0.00000000  1
  Yb  Yb6  1  0.50000000  0.00000000  0.88689500  1
  Yb  Yb7  1  0.11310500  0.11310500  0.11310500  1
  C  C8  1  0.79757000  0.04757000  0.75000000  1
  C  C9  1  0.95243000  0.20243000  0.75000000  1
  C  C10  1  0.25000000  0.54757000  0.29757000  1
  C  C11  1  0.29757000  0.25000000  0.54757000  1
  C  C12  1  0.75000000  0.95243000  0.20243000  1
  C  C13  1  0.20243000  0.75000000  0.95243000  1
  C  C14  1  0.70243000  0.45243000  0.25000000  1
  C  C15  1  0.45243000  0.25000000  0.70243000  1
  C  C16  1  0.54757000  0.29757000  0.25000000  1
  C  C17  1  0.25000000  0.70243000  0.45243000  1
  C  C18  1  0.75000000  0.79757000  0.04757000  1
  C  C19  1  0.04757000  0.75000000  0.79757000  1
