# generated using pymatgen
data_Th(NiSn)2
_symmetry_space_group_name_H-M   'P 1'
_cell_length_a   4.44940000
_cell_length_b   4.44940000
_cell_length_c   10.10140100
_cell_angle_alpha   90.00000000
_cell_angle_beta   90.00000000
_cell_angle_gamma   90.00000000
_symmetry_Int_Tables_number   1
_chemical_formula_structural   Th(NiSn)2
_chemical_formula_sum   'Th2 Ni4 Sn4'
_cell_volume   199.97905546
_cell_formula_units_Z   2
loop_
 _symmetry_equiv_pos_site_id
 _symmetry_equiv_pos_as_xyz
  1  'x, y, z'
loop_
 _atom_site_type_symbol
 _atom_site_label
 _atom_site_symmetry_multiplicity
 _atom_site_fract_x
 _atom_site_fract_y
 _atom_site_fract_z
 _atom_site_occupancy
  Th  Th0  1  0.00000000  0.50000000  0.23402900  1
  Th  Th1  1  0.50000000  0.00000000  0.76597100  1
  Ni  Ni2  1  0.00000000  0.00000000  0.00000000  1
  Ni  Ni3  1  0.50000000  0.50000000  0.00000000  1
  Ni  Ni4  1  0.50000000  0.00000000  0.37241900  1
  Ni  Ni5  1  0.00000000  0.50000000  0.62758100  1
  Sn  Sn6  1  0.50000000  0.00000000  0.12554300  1
  Sn  Sn7  1  0.00000000  0.00000000  0.50000000  1
  Sn  Sn8  1  0.50000000  0.50000000  0.50000000  1
  Sn  Sn9  1  0.00000000  0.50000000  0.87445700  1
