# generated using pymatgen
data_Li4TiO4
_symmetry_space_group_name_H-M   'P 1'
_cell_length_a   5.47659759
_cell_length_b   5.47659759
_cell_length_c   6.20379800
_cell_angle_alpha   90.00000000
_cell_angle_beta   90.00000000
_cell_angle_gamma   93.77648521
_symmetry_Int_Tables_number   1
_chemical_formula_structural   Li4TiO4
_chemical_formula_sum   'Li8 Ti2 O8'
_cell_volume   185.66722700
_cell_formula_units_Z   2
loop_
 _symmetry_equiv_pos_site_id
 _symmetry_equiv_pos_as_xyz
  1  'x, y, z'
loop_
 _atom_site_type_symbol
 _atom_site_label
 _atom_site_symmetry_multiplicity
 _atom_site_fract_x
 _atom_site_fract_y
 _atom_site_fract_z
 _atom_site_occupancy
  Li  Li0  1  0.84045900  0.15954100  0.00000000  1
  Li  Li1  1  0.15954100  0.84045900  0.50000000  1
  Li  Li2  1  0.15954100  0.84045900  0.00000000  1
  Li  Li3  1  0.84045900  0.15954100  0.50000000  1
  Li  Li4  1  0.87648800  0.58395500  0.25000000  1
  Li  Li5  1  0.12351200  0.41604500  0.75000000  1
  Li  Li6  1  0.58395500  0.87648800  0.25000000  1
  Li  Li7  1  0.41604500  0.12351200  0.75000000  1
  Ti  Ti8  1  0.34012600  0.34012600  0.25000000  1
  Ti  Ti9  1  0.65987400  0.65987400  0.75000000  1
  O  O10  1  0.66426500  0.27000700  0.25000000  1
  O  O11  1  0.33573500  0.72999300  0.75000000  1
  O  O12  1  0.20294100  0.20294100  0.00297200  1
  O  O13  1  0.79705900  0.79705900  0.50297200  1
  O  O14  1  0.20294100  0.20294100  0.49702800  1
  O  O15  1  0.79705900  0.79705900  0.99702800  1
  O  O16  1  0.27000700  0.66426500  0.25000000  1
  O  O17  1  0.72999300  0.33573500  0.75000000  1
