# generated using pymatgen
data_MnNbGe
_symmetry_space_group_name_H-M   'P 1'
_cell_length_a   6.58229775
_cell_length_b   6.58229775
_cell_length_c   3.64569700
_cell_angle_alpha   90.00000000
_cell_angle_beta   90.00000000
_cell_angle_gamma   119.99999753
_symmetry_Int_Tables_number   1
_chemical_formula_structural   MnNbGe
_chemical_formula_sum   'Mn3 Nb3 Ge3'
_cell_volume   136.79375193
_cell_formula_units_Z   3
loop_
 _symmetry_equiv_pos_site_id
 _symmetry_equiv_pos_as_xyz
  1  'x, y, z'
loop_
 _atom_site_type_symbol
 _atom_site_label
 _atom_site_symmetry_multiplicity
 _atom_site_fract_x
 _atom_site_fract_y
 _atom_site_fract_z
 _atom_site_occupancy
  Mn  Mn0  1  0.00000000  0.74923000  0.00000000  1
  Mn  Mn1  1  0.25077000  0.25077000  0.00000000  1
  Mn  Mn2  1  0.74923000  0.00000000  0.00000000  1
  Nb  Nb3  1  0.00000000  0.41693400  0.50000000  1
  Nb  Nb4  1  0.58306600  0.58306600  0.50000000  1
  Nb  Nb5  1  0.41693400  0.00000000  0.50000000  1
  Ge  Ge6  1  0.33333300  0.66666700  0.00000000  1
  Ge  Ge7  1  0.66666700  0.33333300  0.00000000  1
  Ge  Ge8  1  0.00000000  0.00000000  0.50000000  1
