# generated using pymatgen
data_Hf4Co4Si7
_symmetry_space_group_name_H-M   'P 1'
_cell_length_a   9.43805556
_cell_length_b   9.43805556
_cell_length_c   9.43805556
_cell_angle_alpha   94.09914322
_cell_angle_beta   94.09914322
_cell_angle_gamma   148.98527880
_symmetry_Int_Tables_number   1
_chemical_formula_structural   Hf4Co4Si7
_chemical_formula_sum   'Hf8 Co8 Si14'
_cell_volume   417.41458476
_cell_formula_units_Z   2
loop_
 _symmetry_equiv_pos_site_id
 _symmetry_equiv_pos_as_xyz
  1  'x, y, z'
loop_
 _atom_site_type_symbol
 _atom_site_label
 _atom_site_symmetry_multiplicity
 _atom_site_fract_x
 _atom_site_fract_y
 _atom_site_fract_z
 _atom_site_occupancy
  Hf  Hf0  1  0.13748500  0.13748500  0.27497100  1
  Hf  Hf1  1  0.86251500  0.86251500  0.72502900  1
  Hf  Hf2  1  0.13748500  0.86251500  0.00000000  1
  Hf  Hf3  1  0.86251500  0.13748500  0.00000000  1
  Hf  Hf4  1  0.30362200  0.50000000  0.80362200  1
  Hf  Hf5  1  0.69637800  0.50000000  0.19637800  1
  Hf  Hf6  1  0.50000000  0.69637800  0.19637800  1
  Hf  Hf7  1  0.50000000  0.30362200  0.80362200  1
  Co  Co8  1  0.10206100  0.60206100  0.20412100  1
  Co  Co9  1  0.39793900  0.89793900  0.79587900  1
  Co  Co10  1  0.89793900  0.10206100  0.50000000  1
  Co  Co11  1  0.60206100  0.39793900  0.50000000  1
  Co  Co12  1  0.60206100  0.10206100  0.20412100  1
  Co  Co13  1  0.89793900  0.39793900  0.79587900  1
  Co  Co14  1  0.10206100  0.89793900  0.50000000  1
  Co  Co15  1  0.39793900  0.60206100  0.50000000  1
  Si  Si16  1  0.28970900  0.28970900  0.57941800  1
  Si  Si17  1  0.71029100  0.71029100  0.42058200  1
  Si  Si18  1  0.28970900  0.71029100  0.00000000  1
  Si  Si19  1  0.71029100  0.28970900  0.00000000  1
  Si  Si20  1  0.09181400  0.50000000  0.59181400  1
  Si  Si21  1  0.90818600  0.50000000  0.40818600  1
  Si  Si22  1  0.50000000  0.90818600  0.40818600  1
  Si  Si23  1  0.50000000  0.09181400  0.59181400  1
  Si  Si24  1  0.25053900  0.25053900  0.00000000  1
  Si  Si25  1  0.74946100  0.74946100  0.00000000  1
  Si  Si26  1  0.30139800  0.00000000  0.30139800  1
  Si  Si27  1  0.69860200  0.00000000  0.69860200  1
  Si  Si28  1  0.00000000  0.69860200  0.69860200  1
  Si  Si29  1  0.00000000  0.30139800  0.30139800  1
