# generated using pymatgen
data_TaGeRh
_symmetry_space_group_name_H-M   'P 1'
_cell_length_a   3.87219700
_cell_length_b   6.47274300
_cell_length_c   7.49737700
_cell_angle_alpha   90.00000000
_cell_angle_beta   90.00000000
_cell_angle_gamma   90.00000000
_symmetry_Int_Tables_number   1
_chemical_formula_structural   TaGeRh
_chemical_formula_sum   'Ta4 Ge4 Rh4'
_cell_volume   187.91227802
_cell_formula_units_Z   4
loop_
 _symmetry_equiv_pos_site_id
 _symmetry_equiv_pos_as_xyz
  1  'x, y, z'
loop_
 _atom_site_type_symbol
 _atom_site_label
 _atom_site_symmetry_multiplicity
 _atom_site_fract_x
 _atom_site_fract_y
 _atom_site_fract_z
 _atom_site_occupancy
  Ta  Ta0  1  0.75000000  0.52779800  0.17854500  1
  Ta  Ta1  1  0.75000000  0.02779800  0.32145500  1
  Ta  Ta2  1  0.25000000  0.97220200  0.67854500  1
  Ta  Ta3  1  0.25000000  0.47220200  0.82145500  1
  Ge  Ge4  1  0.25000000  0.24064000  0.12383200  1
  Ge  Ge5  1  0.25000000  0.74064000  0.37616800  1
  Ge  Ge6  1  0.75000000  0.25936000  0.62383200  1
  Ge  Ge7  1  0.75000000  0.75936000  0.87616800  1
  Rh  Rh8  1  0.25000000  0.85537800  0.06292100  1
  Rh  Rh9  1  0.25000000  0.35537800  0.43707900  1
  Rh  Rh10  1  0.75000000  0.64462200  0.56292100  1
  Rh  Rh11  1  0.75000000  0.14462200  0.93707900  1
