# generated using pymatgen
data_LaOsN3
_symmetry_space_group_name_H-M   'P 1'
_cell_length_a   3.66525700
_cell_length_b   5.70017300
_cell_length_c   6.74748900
_cell_angle_alpha   90.00000000
_cell_angle_beta   90.00000000
_cell_angle_gamma   90.00000000
_symmetry_Int_Tables_number   1
_chemical_formula_structural   LaOsN3
_chemical_formula_sum   'La2 Os2 N6'
_cell_volume   140.97258186
_cell_formula_units_Z   2
loop_
 _symmetry_equiv_pos_site_id
 _symmetry_equiv_pos_as_xyz
  1  'x, y, z'
loop_
 _atom_site_type_symbol
 _atom_site_label
 _atom_site_symmetry_multiplicity
 _atom_site_fract_x
 _atom_site_fract_y
 _atom_site_fract_z
 _atom_site_occupancy
  La  La0  1  0.00000000  0.25000000  0.20778800  1
  La  La1  1  0.00000000  0.75000000  0.79221200  1
  Os  Os2  1  0.50000000  0.25000000  0.80524600  1
  Os  Os3  1  0.50000000  0.75000000  0.19475400  1
  N  N4  1  0.50000000  0.50734900  0.40575300  1
  N  N5  1  0.50000000  0.00000000  0.00000000  1
  N  N6  1  0.50000000  0.99265100  0.40575300  1
  N  N7  1  0.50000000  0.49265100  0.59424700  1
  N  N8  1  0.50000000  0.50000000  0.00000000  1
  N  N9  1  0.50000000  0.00734900  0.59424700  1
