# generated using pymatgen
data_Ca3ReO6
_symmetry_space_group_name_H-M   'P 1'
_cell_length_a   5.85850300
_cell_length_b   5.57459100
_cell_length_c   9.80476101
_cell_angle_alpha   55.42006871
_cell_angle_beta   90.00000000
_cell_angle_gamma   90.00000000
_symmetry_Int_Tables_number   1
_chemical_formula_structural   Ca3ReO6
_chemical_formula_sum   'Ca6 Re2 O12'
_cell_volume   263.64125391
_cell_formula_units_Z   2
loop_
 _symmetry_equiv_pos_site_id
 _symmetry_equiv_pos_as_xyz
  1  'x, y, z'
loop_
 _atom_site_type_symbol
 _atom_site_label
 _atom_site_symmetry_multiplicity
 _atom_site_fract_x
 _atom_site_fract_y
 _atom_site_fract_z
 _atom_site_occupancy
  Ca  Ca0  1  0.55861300  0.22743700  0.25656300  1
  Ca  Ca1  1  0.05861300  0.77256300  0.24343700  1
  Ca  Ca2  1  0.50000000  0.00000000  0.00000000  1
  Ca  Ca3  1  0.00000000  0.00000000  0.50000000  1
  Ca  Ca4  1  0.94138700  0.22743700  0.75656300  1
  Ca  Ca5  1  0.44138700  0.77256300  0.74343700  1
  Re  Re6  1  0.00000000  0.50000000  0.00000000  1
  Re  Re7  1  0.50000000  0.50000000  0.50000000  1
  O  O8  1  0.55261800  0.38847600  0.72571600  1
  O  O9  1  0.05261800  0.61152400  0.77428400  1
  O  O10  1  0.44738200  0.61152400  0.27428400  1
  O  O11  1  0.94738200  0.38847600  0.22571600  1
  O  O12  1  0.77560900  0.73776400  0.42945900  1
  O  O13  1  0.27560900  0.26223600  0.07054100  1
  O  O14  1  0.22439100  0.26223600  0.57054100  1
  O  O15  1  0.72439100  0.73776400  0.92945900  1
  O  O16  1  0.17615800  0.83514900  0.94966600  1
  O  O17  1  0.67615800  0.16485100  0.55033400  1
  O  O18  1  0.82384200  0.16485100  0.05033400  1
  O  O19  1  0.32384200  0.83514900  0.44966600  1
