# generated using pymatgen
data_Ba2MgSi2O7
_symmetry_space_group_name_H-M   'P 1'
_cell_length_a   8.30788300
_cell_length_b   8.30788300
_cell_length_c   5.48856700
_cell_angle_alpha   90.00000000
_cell_angle_beta   90.00000000
_cell_angle_gamma   90.00000000
_symmetry_Int_Tables_number   1
_chemical_formula_structural   Ba2MgSi2O7
_chemical_formula_sum   'Ba4 Mg2 Si4 O14'
_cell_volume   378.82594350
_cell_formula_units_Z   2
loop_
 _symmetry_equiv_pos_site_id
 _symmetry_equiv_pos_as_xyz
  1  'x, y, z'
loop_
 _atom_site_type_symbol
 _atom_site_label
 _atom_site_symmetry_multiplicity
 _atom_site_fract_x
 _atom_site_fract_y
 _atom_site_fract_z
 _atom_site_occupancy
  Ba  Ba0  1  0.66527400  0.16527400  0.51039000  1
  Ba  Ba1  1  0.83472600  0.66527400  0.48961000  1
  Ba  Ba2  1  0.16527400  0.33472600  0.48961000  1
  Ba  Ba3  1  0.33472600  0.83472600  0.51039000  1
  Mg  Mg4  1  0.00000000  0.00000000  0.00000000  1
  Mg  Mg5  1  0.50000000  0.50000000  0.00000000  1
  Si  Si6  1  0.86322200  0.36322200  0.95488600  1
  Si  Si7  1  0.13677800  0.63677800  0.95488600  1
  Si  Si8  1  0.63677800  0.86322200  0.04511400  1
  Si  Si9  1  0.36322200  0.13677800  0.04511400  1
  O  O10  1  0.69464400  0.42234100  0.82280300  1
  O  O11  1  0.30535600  0.57765900  0.82280300  1
  O  O12  1  0.42234100  0.30535600  0.17719700  1
  O  O13  1  0.57765900  0.69464400  0.17719700  1
  O  O14  1  0.92234100  0.19464400  0.82280300  1
  O  O15  1  0.80535600  0.92234100  0.17719700  1
  O  O16  1  0.19464400  0.07765900  0.17719700  1
  O  O17  1  0.07765900  0.80535600  0.82280300  1
  O  O18  1  0.86004200  0.36004200  0.25055700  1
  O  O19  1  0.63995800  0.86004200  0.74944300  1
  O  O20  1  0.50000000  0.00000000  0.14104900  1
  O  O21  1  0.00000000  0.50000000  0.85895100  1
  O  O22  1  0.13995800  0.63995800  0.25055700  1
  O  O23  1  0.36004200  0.13995800  0.74944300  1
