# generated using pymatgen
data_HoCuGe
_symmetry_space_group_name_H-M   'P 1'
_cell_length_a   4.25891561
_cell_length_b   4.25891561
_cell_length_c   7.16218200
_cell_angle_alpha   90.00000000
_cell_angle_beta   90.00000000
_cell_angle_gamma   119.99999397
_symmetry_Int_Tables_number   1
_chemical_formula_structural   HoCuGe
_chemical_formula_sum   'Ho2 Cu2 Ge2'
_cell_volume   112.50558456
_cell_formula_units_Z   2
loop_
 _symmetry_equiv_pos_site_id
 _symmetry_equiv_pos_as_xyz
  1  'x, y, z'
loop_
 _atom_site_type_symbol
 _atom_site_label
 _atom_site_symmetry_multiplicity
 _atom_site_fract_x
 _atom_site_fract_y
 _atom_site_fract_z
 _atom_site_occupancy
  Ho  Ho0  1  0.00000000  0.00000000  0.75047400  1
  Ho  Ho1  1  0.00000000  0.00000000  0.25047400  1
  Cu  Cu2  1  0.66666700  0.33333300  0.53596300  1
  Cu  Cu3  1  0.33333300  0.66666700  0.03596300  1
  Ge  Ge4  1  0.33333300  0.66666700  0.47426400  1
  Ge  Ge5  1  0.66666700  0.33333300  0.97426400  1
