# generated using pymatgen
data_Sc2CoSi2
_symmetry_space_group_name_H-M   'P 1'
_cell_length_a   5.31650779
_cell_length_b   5.31650779
_cell_length_c   9.43231611
_cell_angle_alpha   63.47202078
_cell_angle_beta   63.47202078
_cell_angle_gamma   43.66073459
_symmetry_Int_Tables_number   1
_chemical_formula_structural   Sc2CoSi2
_chemical_formula_sum   'Sc4 Co2 Si4'
_cell_volume   161.35688583
_cell_formula_units_Z   2
loop_
 _symmetry_equiv_pos_site_id
 _symmetry_equiv_pos_as_xyz
  1  'x, y, z'
loop_
 _atom_site_type_symbol
 _atom_site_label
 _atom_site_symmetry_multiplicity
 _atom_site_fract_x
 _atom_site_fract_y
 _atom_site_fract_z
 _atom_site_occupancy
  Sc  Sc0  1  0.31595900  0.31595900  0.10541300  1
  Sc  Sc1  1  0.50029400  0.50029400  0.67175800  1
  Sc  Sc2  1  0.68404100  0.68404100  0.89458700  1
  Sc  Sc3  1  0.49970600  0.49970600  0.32824200  1
  Co  Co4  1  0.77450500  0.77450500  0.37439700  1
  Co  Co5  1  0.22549500  0.22549500  0.62560300  1
  Si  Si6  1  0.98772600  0.98772600  0.87502700  1
  Si  Si7  1  0.14496600  0.14496600  0.43076200  1
  Si  Si8  1  0.01227400  0.01227400  0.12497300  1
  Si  Si9  1  0.85503400  0.85503400  0.56923800  1
