# generated using pymatgen
data_NaSmSe2
_symmetry_space_group_name_H-M   'P 1'
_cell_length_a   7.39402539
_cell_length_b   7.39402539
_cell_length_c   7.39402544
_cell_angle_alpha   33.27149761
_cell_angle_beta   33.27149761
_cell_angle_gamma   33.27150177
_symmetry_Int_Tables_number   1
_chemical_formula_structural   NaSmSe2
_chemical_formula_sum   'Na1 Sm1 Se2'
_cell_volume   108.31911178
_cell_formula_units_Z   1
loop_
 _symmetry_equiv_pos_site_id
 _symmetry_equiv_pos_as_xyz
  1  'x, y, z'
loop_
 _atom_site_type_symbol
 _atom_site_label
 _atom_site_symmetry_multiplicity
 _atom_site_fract_x
 _atom_site_fract_y
 _atom_site_fract_z
 _atom_site_occupancy
  Na  Na0  1  0.00000000  0.00000000  0.00000000  1
  Sm  Sm1  1  0.50000000  0.50000000  0.50000000  1
  Se  Se2  1  0.75505700  0.75505700  0.75505700  1
  Se  Se3  1  0.24494300  0.24494300  0.24494300  1
