# generated using pymatgen
data_Cs2ZrSe3
_symmetry_space_group_name_H-M   'P 1'
_cell_length_a   8.27598895
_cell_length_b   8.27598895
_cell_length_c   7.22051000
_cell_angle_alpha   90.00000000
_cell_angle_beta   90.00000000
_cell_angle_gamma   108.81451263
_symmetry_Int_Tables_number   1
_chemical_formula_structural   Cs2ZrSe3
_chemical_formula_sum   'Cs4 Zr2 Se6'
_cell_volume   468.12228286
_cell_formula_units_Z   2
loop_
 _symmetry_equiv_pos_site_id
 _symmetry_equiv_pos_as_xyz
  1  'x, y, z'
loop_
 _atom_site_type_symbol
 _atom_site_label
 _atom_site_symmetry_multiplicity
 _atom_site_fract_x
 _atom_site_fract_y
 _atom_site_fract_z
 _atom_site_occupancy
  Cs  Cs0  1  0.50653400  0.81875700  0.25000000  1
  Cs  Cs1  1  0.49346600  0.18124300  0.75000000  1
  Cs  Cs2  1  0.18124300  0.49346600  0.75000000  1
  Cs  Cs3  1  0.81875700  0.50653400  0.25000000  1
  Zr  Zr4  1  0.08182800  0.08182800  0.25000000  1
  Zr  Zr5  1  0.91817200  0.91817200  0.75000000  1
  Se  Se6  1  0.65848900  0.65848900  0.75000000  1
  Se  Se7  1  0.34151100  0.34151100  0.25000000  1
  Se  Se8  1  0.86468000  0.13532000  0.50000000  1
  Se  Se9  1  0.86468000  0.13532000  0.00000000  1
  Se  Se10  1  0.13532000  0.86468000  0.50000000  1
  Se  Se11  1  0.13532000  0.86468000  0.00000000  1
