# generated using pymatgen
data_Sr(SnAs)2
_symmetry_space_group_name_H-M   'P 1'
_cell_length_a   9.38939980
_cell_length_b   9.38939980
_cell_length_c   9.38939916
_cell_angle_alpha   26.35204167
_cell_angle_beta   26.35204167
_cell_angle_gamma   26.35204615
_symmetry_Int_Tables_number   1
_chemical_formula_structural   Sr(SnAs)2
_chemical_formula_sum   'Sr1 Sn2 As2'
_cell_volume   143.73688747
_cell_formula_units_Z   1
loop_
 _symmetry_equiv_pos_site_id
 _symmetry_equiv_pos_as_xyz
  1  'x, y, z'
loop_
 _atom_site_type_symbol
 _atom_site_label
 _atom_site_symmetry_multiplicity
 _atom_site_fract_x
 _atom_site_fract_y
 _atom_site_fract_z
 _atom_site_occupancy
  Sr  Sr0  1  0.00000000  0.00000000  0.00000000  1
  Sn  Sn1  1  0.20988100  0.20988100  0.20988100  1
  Sn  Sn2  1  0.79011900  0.79011900  0.79011900  1
  As  As3  1  0.59382200  0.59382200  0.59382200  1
  As  As4  1  0.40617800  0.40617800  0.40617800  1
