# generated using pymatgen
data_AlTlS2
_symmetry_space_group_name_H-M   'P 1'
_cell_length_a   7.36310299
_cell_length_b   7.36310299
_cell_length_c   15.35629522
_cell_angle_alpha   83.08921149
_cell_angle_beta   83.08921149
_cell_angle_gamma   90.01639695
_symmetry_Int_Tables_number   1
_chemical_formula_structural   AlTlS2
_chemical_formula_sum   'Al8 Tl8 S16'
_cell_volume   820.40041481
_cell_formula_units_Z   8
loop_
 _symmetry_equiv_pos_site_id
 _symmetry_equiv_pos_as_xyz
  1  'x, y, z'
loop_
 _atom_site_type_symbol
 _atom_site_label
 _atom_site_symmetry_multiplicity
 _atom_site_fract_x
 _atom_site_fract_y
 _atom_site_fract_z
 _atom_site_occupancy
  Al  Al0  1  0.41958600  0.29207600  0.33681300  1
  Al  Al1  1  0.70792400  0.58041400  0.16318700  1
  Al  Al2  1  0.58041400  0.70792400  0.66318700  1
  Al  Al3  1  0.29207600  0.41958600  0.83681300  1
  Al  Al4  1  0.70786500  0.08916300  0.16449000  1
  Al  Al5  1  0.91083700  0.29213500  0.33551000  1
  Al  Al6  1  0.29213500  0.91083700  0.83551000  1
  Al  Al7  1  0.08916300  0.70786500  0.66449000  1
  Tl  Tl8  1  0.65131400  0.78281900  0.38480500  1
  Tl  Tl9  1  0.21718100  0.34868600  0.11519500  1
  Tl  Tl10  1  0.34868600  0.21718100  0.61519500  1
  Tl  Tl11  1  0.78281900  0.65131400  0.88480500  1
  Tl  Tl12  1  0.22722100  0.85143500  0.11146400  1
  Tl  Tl13  1  0.14856500  0.77277900  0.38853600  1
  Tl  Tl14  1  0.77277900  0.14856500  0.88853600  1
  Tl  Tl15  1  0.85143500  0.22722100  0.61146400  1
  S  S16  1  0.43431400  0.06037700  0.25134000  1
  S  S17  1  0.93962300  0.56568600  0.24866000  1
  S  S18  1  0.56568600  0.93962300  0.74866000  1
  S  S19  1  0.06037700  0.43431400  0.75134000  1
  S  S20  1  0.43513500  0.56486500  0.25000000  1
  S  S21  1  0.56486500  0.43513500  0.75000000  1
  S  S22  1  0.93893700  0.06106300  0.25000000  1
  S  S23  1  0.06106300  0.93893700  0.75000000  1
  S  S24  1  0.72746200  0.85689000  0.07747000  1
  S  S25  1  0.14311000  0.27253800  0.42253000  1
  S  S26  1  0.27253800  0.14311000  0.92253000  1
  S  S27  1  0.85689000  0.72746200  0.57747000  1
  S  S28  1  0.64326500  0.26980500  0.42715300  1
  S  S29  1  0.73019500  0.35673500  0.07284700  1
  S  S30  1  0.35673500  0.73019500  0.57284700  1
  S  S31  1  0.26980500  0.64326500  0.92715300  1
