# generated using pymatgen
data_Ba3(AlSi)2
_symmetry_space_group_name_H-M   'P 1'
_cell_length_a   10.58827763
_cell_length_b   10.58827763
_cell_length_c   10.58827763
_cell_angle_alpha   156.49566012
_cell_angle_beta   151.94135172
_cell_angle_gamma   36.91795673
_symmetry_Int_Tables_number   1
_chemical_formula_structural   Ba3(AlSi)2
_chemical_formula_sum   'Ba3 Al2 Si2'
_cell_volume   222.38630432
_cell_formula_units_Z   1
loop_
 _symmetry_equiv_pos_site_id
 _symmetry_equiv_pos_as_xyz
  1  'x, y, z'
loop_
 _atom_site_type_symbol
 _atom_site_label
 _atom_site_symmetry_multiplicity
 _atom_site_fract_x
 _atom_site_fract_y
 _atom_site_fract_z
 _atom_site_occupancy
  Ba  Ba0  1  0.00000000  0.00000000  0.00000000  1
  Ba  Ba1  1  0.81536100  0.31536100  0.50000000  1
  Ba  Ba2  1  0.18463900  0.68463900  0.50000000  1
  Al  Al3  1  0.56501300  0.56501300  0.00000000  1
  Al  Al4  1  0.43498700  0.43498700  0.00000000  1
  Si  Si5  1  0.63324600  0.13324600  0.50000000  1
  Si  Si6  1  0.36675400  0.86675400  0.50000000  1
