# generated using pymatgen
data_NaLaSe2
_symmetry_space_group_name_H-M   'P 1'
_cell_length_a   7.46365786
_cell_length_b   7.46365786
_cell_length_c   7.46365825
_cell_angle_alpha   34.16860612
_cell_angle_beta   34.16860612
_cell_angle_gamma   34.16860730
_symmetry_Int_Tables_number   1
_chemical_formula_structural   NaLaSe2
_chemical_formula_sum   'Na1 La1 Se2'
_cell_volume   116.93354418
_cell_formula_units_Z   1
loop_
 _symmetry_equiv_pos_site_id
 _symmetry_equiv_pos_as_xyz
  1  'x, y, z'
loop_
 _atom_site_type_symbol
 _atom_site_label
 _atom_site_symmetry_multiplicity
 _atom_site_fract_x
 _atom_site_fract_y
 _atom_site_fract_z
 _atom_site_occupancy
  Na  Na0  1  0.00000000  0.00000000  0.00000000  1
  La  La1  1  0.50000000  0.50000000  0.50000000  1
  Se  Se2  1  0.75514300  0.75514300  0.75514300  1
  Se  Se3  1  0.24485700  0.24485700  0.24485700  1
