# generated using pymatgen
data_LiFeHSO5
_symmetry_space_group_name_H-M   'P 1'
_cell_length_a   5.56416300
_cell_length_b   7.53938800
_cell_length_c   9.85531658
_cell_angle_alpha   69.50303886
_cell_angle_beta   90.00000000
_cell_angle_gamma   90.00000000
_symmetry_Int_Tables_number   1
_chemical_formula_structural   LiFeHSO5
_chemical_formula_sum   'Li4 Fe4 H4 S4 O20'
_cell_volume   387.26010136
_cell_formula_units_Z   4
loop_
 _symmetry_equiv_pos_site_id
 _symmetry_equiv_pos_as_xyz
  1  'x, y, z'
loop_
 _atom_site_type_symbol
 _atom_site_label
 _atom_site_symmetry_multiplicity
 _atom_site_fract_x
 _atom_site_fract_y
 _atom_site_fract_z
 _atom_site_occupancy
  Li  Li0  1  0.43721100  0.68796600  0.08518700  1
  Li  Li1  1  0.93721100  0.81203400  0.91481300  1
  Li  Li2  1  0.56278900  0.31203400  0.91481300  1
  Li  Li3  1  0.06278900  0.18796600  0.08518700  1
  Fe  Fe4  1  0.76318400  0.87346900  0.55522600  1
  Fe  Fe5  1  0.26318400  0.62653100  0.44477400  1
  Fe  Fe6  1  0.23681600  0.12653100  0.44477400  1
  Fe  Fe7  1  0.73681600  0.37346900  0.55522600  1
  H  H8  1  0.49854100  0.40679300  0.33232400  1
  H  H9  1  0.99854100  0.09320700  0.66767600  1
  H  H10  1  0.50145900  0.59320700  0.66767600  1
  H  H11  1  0.00145900  0.90679300  0.33232400  1
  S  S12  1  0.06102700  0.50739000  0.78891900  1
  S  S13  1  0.56102700  0.99261000  0.21108100  1
  S  S14  1  0.93897300  0.49261000  0.21108100  1
  S  S15  1  0.43897300  0.00739000  0.78891900  1
  O  O16  1  0.92685800  0.12734900  0.57027800  1
  O  O17  1  0.42685800  0.37265100  0.42972200  1
  O  O18  1  0.07314200  0.87265100  0.42972200  1
  O  O19  1  0.57314200  0.62734900  0.57027800  1
  O  O20  1  0.44549200  0.96365000  0.65083200  1
  O  O21  1  0.94549200  0.53635000  0.34916800  1
  O  O22  1  0.55450800  0.03635000  0.34916800  1
  O  O23  1  0.05450800  0.46365000  0.65083200  1
  O  O24  1  0.55153300  0.19710300  0.76014400  1
  O  O25  1  0.05153300  0.30289700  0.23985600  1
  O  O26  1  0.44846700  0.80289700  0.23985600  1
  O  O27  1  0.94846700  0.69710300  0.76014400  1
  O  O28  1  0.68662700  0.49099800  0.16439500  1
  O  O29  1  0.18662700  0.00900200  0.83560500  1
  O  O30  1  0.31337300  0.50900200  0.83560500  1
  O  O31  1  0.81337300  0.99099800  0.16439500  1
  O  O32  1  0.41993400  0.13757700  0.09686800  1
  O  O33  1  0.91993400  0.36242300  0.90313200  1
  O  O34  1  0.58006600  0.86242300  0.90313200  1
  O  O35  1  0.08006600  0.63757700  0.09686800  1
