# generated using pymatgen
data_BaCuSeF
_symmetry_space_group_name_H-M   'P 1'
_cell_length_a   4.26353300
_cell_length_b   4.26353300
_cell_length_c   9.24654700
_cell_angle_alpha   90.00000000
_cell_angle_beta   90.00000000
_cell_angle_gamma   90.00000000
_symmetry_Int_Tables_number   1
_chemical_formula_structural   BaCuSeF
_chemical_formula_sum   'Ba2 Cu2 Se2 F2'
_cell_volume   168.08108354
_cell_formula_units_Z   2
loop_
 _symmetry_equiv_pos_site_id
 _symmetry_equiv_pos_as_xyz
  1  'x, y, z'
loop_
 _atom_site_type_symbol
 _atom_site_label
 _atom_site_symmetry_multiplicity
 _atom_site_fract_x
 _atom_site_fract_y
 _atom_site_fract_z
 _atom_site_occupancy
  Ba  Ba0  1  0.00000000  0.50000000  0.67242300  1
  Ba  Ba1  1  0.50000000  0.00000000  0.32757700  1
  Cu  Cu2  1  0.50000000  0.50000000  0.00000000  1
  Cu  Cu3  1  0.00000000  0.00000000  0.00000000  1
  Se  Se4  1  0.00000000  0.50000000  0.15115500  1
  Se  Se5  1  0.50000000  0.00000000  0.84884500  1
  F  F6  1  0.00000000  0.00000000  0.50000000  1
  F  F7  1  0.50000000  0.50000000  0.50000000  1
