# generated using pymatgen
data_InSnCl3
_symmetry_space_group_name_H-M   'P 1'
_cell_length_a   8.13388966
_cell_length_b   8.13388966
_cell_length_c   8.13388977
_cell_angle_alpha   58.70701167
_cell_angle_beta   58.70701167
_cell_angle_gamma   58.70700779
_symmetry_Int_Tables_number   1
_chemical_formula_structural   InSnCl3
_chemical_formula_sum   'In2 Sn2 Cl6'
_cell_volume   369.28006003
_cell_formula_units_Z   2
loop_
 _symmetry_equiv_pos_site_id
 _symmetry_equiv_pos_as_xyz
  1  'x, y, z'
loop_
 _atom_site_type_symbol
 _atom_site_label
 _atom_site_symmetry_multiplicity
 _atom_site_fract_x
 _atom_site_fract_y
 _atom_site_fract_z
 _atom_site_occupancy
  In  In0  1  0.86129000  0.86129000  0.86129000  1
  In  In1  1  0.13871000  0.13871000  0.13871000  1
  Sn  Sn2  1  0.66378400  0.66378400  0.66378400  1
  Sn  Sn3  1  0.33621600  0.33621600  0.33621600  1
  Cl  Cl4  1  0.73500100  0.01230500  0.48315000  1
  Cl  Cl5  1  0.48315000  0.73500100  0.01230500  1
  Cl  Cl6  1  0.01230500  0.48315000  0.73500100  1
  Cl  Cl7  1  0.26499900  0.98769500  0.51685000  1
  Cl  Cl8  1  0.98769500  0.51685000  0.26499900  1
  Cl  Cl9  1  0.51685000  0.26499900  0.98769500  1
