# generated using pymatgen
data_KCaBr3
_symmetry_space_group_name_H-M   'P 1'
_cell_length_a   7.52728271
_cell_length_b   7.52728271
_cell_length_c   10.85699100
_cell_angle_alpha   90.00000000
_cell_angle_beta   90.00000000
_cell_angle_gamma   146.73292701
_symmetry_Int_Tables_number   1
_chemical_formula_structural   KCaBr3
_chemical_formula_sum   'K2 Ca2 Br6'
_cell_volume   337.43966922
_cell_formula_units_Z   2
loop_
 _symmetry_equiv_pos_site_id
 _symmetry_equiv_pos_as_xyz
  1  'x, y, z'
loop_
 _atom_site_type_symbol
 _atom_site_label
 _atom_site_symmetry_multiplicity
 _atom_site_fract_x
 _atom_site_fract_y
 _atom_site_fract_z
 _atom_site_occupancy
  K  K0  1  0.74386700  0.25613300  0.75000000  1
  K  K1  1  0.25613300  0.74386700  0.25000000  1
  Ca  Ca2  1  0.00000000  0.00000000  0.50000000  1
  Ca  Ca3  1  0.00000000  0.00000000  0.00000000  1
  Br  Br4  1  0.63179300  0.36820700  0.44464500  1
  Br  Br5  1  0.36820700  0.63179300  0.94464500  1
  Br  Br6  1  0.63179300  0.36820700  0.05535500  1
  Br  Br7  1  0.36820700  0.63179300  0.55535500  1
  Br  Br8  1  0.07073700  0.92926300  0.75000000  1
  Br  Br9  1  0.92926300  0.07073700  0.25000000  1
