# generated using pymatgen
data_SrCu(SeO3)2
_symmetry_space_group_name_H-M   'P 1'
_cell_length_a   4.84677331
_cell_length_b   4.84677331
_cell_length_c   15.09780128
_cell_angle_alpha   89.15518552
_cell_angle_beta   89.15518552
_cell_angle_gamma   65.27073997
_symmetry_Int_Tables_number   1
_chemical_formula_structural   SrCu(SeO3)2
_chemical_formula_sum   'Sr2 Cu2 Se4 O12'
_cell_volume   322.09153060
_cell_formula_units_Z   2
loop_
 _symmetry_equiv_pos_site_id
 _symmetry_equiv_pos_as_xyz
  1  'x, y, z'
loop_
 _atom_site_type_symbol
 _atom_site_label
 _atom_site_symmetry_multiplicity
 _atom_site_fract_x
 _atom_site_fract_y
 _atom_site_fract_z
 _atom_site_occupancy
  Sr  Sr0  1  0.05966800  0.94033200  0.75000000  1
  Sr  Sr1  1  0.94033200  0.05966800  0.25000000  1
  Cu  Cu2  1  0.00000000  0.00000000  0.00000000  1
  Cu  Cu3  1  0.00000000  0.00000000  0.50000000  1
  Se  Se4  1  0.64273700  0.64318000  0.90637200  1
  Se  Se5  1  0.64318000  0.64273700  0.40637200  1
  Se  Se6  1  0.35682000  0.35726300  0.59362800  1
  Se  Se7  1  0.35726300  0.35682000  0.09362800  1
  O  O8  1  0.83955200  0.24905000  0.89425300  1
  O  O9  1  0.75095000  0.16044800  0.60574700  1
  O  O10  1  0.16044800  0.75095000  0.10574700  1
  O  O11  1  0.24905000  0.83955200  0.39425300  1
  O  O12  1  0.26537000  0.68164400  0.91821400  1
  O  O13  1  0.31835600  0.73463000  0.58178600  1
  O  O14  1  0.73463000  0.31835600  0.08178600  1
  O  O15  1  0.68164400  0.26537000  0.41821400  1
  O  O16  1  0.75818800  0.63580500  0.29948700  1
  O  O17  1  0.36419500  0.24181200  0.20051300  1
  O  O18  1  0.24181200  0.36419500  0.70051300  1
  O  O19  1  0.63580500  0.75818800  0.79948700  1
