# generated using pymatgen
data_Er2(SO4)3
_symmetry_space_group_name_H-M   'P 1'
_cell_length_a   9.23573300
_cell_length_b   9.32487000
_cell_length_c   12.89877600
_cell_angle_alpha   90.00000000
_cell_angle_beta   90.00000000
_cell_angle_gamma   90.00000000
_symmetry_Int_Tables_number   1
_chemical_formula_structural   Er2(SO4)3
_chemical_formula_sum   'Er8 S12 O48'
_cell_volume   1110.86851024
_cell_formula_units_Z   4
loop_
 _symmetry_equiv_pos_site_id
 _symmetry_equiv_pos_as_xyz
  1  'x, y, z'
loop_
 _atom_site_type_symbol
 _atom_site_label
 _atom_site_symmetry_multiplicity
 _atom_site_fract_x
 _atom_site_fract_y
 _atom_site_fract_z
 _atom_site_occupancy
  Er  Er0  1  0.75051300  0.46406200  0.38345800  1
  Er  Er1  1  0.75051300  0.03593800  0.61654200  1
  Er  Er2  1  0.74948700  0.96406200  0.11654200  1
  Er  Er3  1  0.74948700  0.53593800  0.88345800  1
  Er  Er4  1  0.24948700  0.53593800  0.61654200  1
  Er  Er5  1  0.24948700  0.96406200  0.38345800  1
  Er  Er6  1  0.25051300  0.03593800  0.88345800  1
  Er  Er7  1  0.25051300  0.46406200  0.11654200  1
  S  S8  1  0.60793400  0.38974000  0.64556500  1
  S  S9  1  0.60793400  0.11026000  0.35443500  1
  S  S10  1  0.89206600  0.88974000  0.85443500  1
  S  S11  1  0.89206600  0.61026000  0.14556500  1
  S  S12  1  0.39206600  0.61026000  0.35443500  1
  S  S13  1  0.39206600  0.88974000  0.64556500  1
  S  S14  1  0.10793400  0.11026000  0.14556500  1
  S  S15  1  0.10793400  0.38974000  0.85443500  1
  S  S16  1  0.03377400  0.25000000  0.50000000  1
  S  S17  1  0.46622600  0.75000000  0.00000000  1
  S  S18  1  0.96622600  0.75000000  0.50000000  1
  S  S19  1  0.53377400  0.25000000  0.00000000  1
  O  O20  1  0.12674000  0.34943700  0.55940800  1
  O  O21  1  0.12674000  0.15056300  0.44059200  1
  O  O22  1  0.37326000  0.84943700  0.94059200  1
  O  O23  1  0.37326000  0.65056300  0.05940800  1
  O  O24  1  0.87326000  0.65056300  0.44059200  1
  O  O25  1  0.87326000  0.84943700  0.55940800  1
  O  O26  1  0.62674000  0.15056300  0.05940800  1
  O  O27  1  0.62674000  0.34943700  0.94059200  1
  O  O28  1  0.94190400  0.33108200  0.42628500  1
  O  O29  1  0.94190400  0.16891800  0.57371500  1
  O  O30  1  0.55809600  0.83108200  0.07371500  1
  O  O31  1  0.55809600  0.66891800  0.92628500  1
  O  O32  1  0.05809600  0.66891800  0.57371500  1
  O  O33  1  0.05809600  0.83108200  0.42628500  1
  O  O34  1  0.44190400  0.16891800  0.92628500  1
  O  O35  1  0.44190400  0.33108200  0.07371500  1
  O  O36  1  0.33393000  0.57121200  0.45755300  1
  O  O37  1  0.66607000  0.42878800  0.54244700  1
  O  O38  1  0.83393000  0.92878800  0.95755300  1
  O  O39  1  0.83393000  0.57121200  0.04244700  1
  O  O40  1  0.35781000  0.76223000  0.33115900  1
  O  O41  1  0.35781000  0.73777000  0.66884100  1
  O  O42  1  0.14219000  0.26223000  0.16884100  1
  O  O43  1  0.14219000  0.23777000  0.83115900  1
  O  O44  1  0.64219000  0.23777000  0.66884100  1
  O  O45  1  0.64219000  0.26223000  0.33115900  1
  O  O46  1  0.85781000  0.73777000  0.83115900  1
  O  O47  1  0.85781000  0.76223000  0.16884100  1
  O  O48  1  0.94877300  0.40871300  0.85327900  1
  O  O49  1  0.94877300  0.09128700  0.14672100  1
  O  O50  1  0.55122700  0.90871300  0.64672100  1
  O  O51  1  0.55122700  0.59128700  0.35327900  1
  O  O52  1  0.05122700  0.59128700  0.14672100  1
  O  O53  1  0.05122700  0.90871300  0.85327900  1
  O  O54  1  0.44877300  0.09128700  0.35327900  1
  O  O55  1  0.44877300  0.40871300  0.64672100  1
  O  O56  1  0.17423800  0.48419200  0.77515400  1
  O  O57  1  0.17423800  0.01580800  0.22484600  1
  O  O58  1  0.32576200  0.98419200  0.72484600  1
  O  O59  1  0.32576200  0.51580800  0.27515400  1
  O  O60  1  0.82576200  0.51580800  0.22484600  1
  O  O61  1  0.82576200  0.98419200  0.77515400  1
  O  O62  1  0.67423800  0.01580800  0.27515400  1
  O  O63  1  0.67423800  0.48419200  0.72484600  1
  O  O64  1  0.16607000  0.42878800  0.95755300  1
  O  O65  1  0.16607000  0.07121200  0.04244700  1
  O  O66  1  0.33393000  0.92878800  0.54244700  1
  O  O67  1  0.66607000  0.07121200  0.45755300  1
