# generated using pymatgen
data_SbPO5
_symmetry_space_group_name_H-M   'P 1'
_cell_length_a   5.35197027
_cell_length_b   5.35197027
_cell_length_c   7.14300517
_cell_angle_alpha   73.42764705
_cell_angle_beta   73.42764705
_cell_angle_gamma   99.72046807
_symmetry_Int_Tables_number   1
_chemical_formula_structural   SbPO5
_chemical_formula_sum   'Sb2 P2 O10'
_cell_volume   180.85099529
_cell_formula_units_Z   2
loop_
 _symmetry_equiv_pos_site_id
 _symmetry_equiv_pos_as_xyz
  1  'x, y, z'
loop_
 _atom_site_type_symbol
 _atom_site_label
 _atom_site_symmetry_multiplicity
 _atom_site_fract_x
 _atom_site_fract_y
 _atom_site_fract_z
 _atom_site_occupancy
  Sb  Sb0  1  0.00000000  0.00000000  0.50000000  1
  Sb  Sb1  1  0.00000000  0.00000000  0.00000000  1
  P  P2  1  0.33186300  0.66813700  0.25000000  1
  P  P3  1  0.66813700  0.33186300  0.75000000  1
  O  O4  1  0.62538000  0.74082400  0.09747100  1
  O  O5  1  0.25917600  0.37462000  0.40252900  1
  O  O6  1  0.37462000  0.25917600  0.90252900  1
  O  O7  1  0.74082400  0.62538000  0.59747100  1
  O  O8  1  0.09356100  0.90643900  0.75000000  1
  O  O9  1  0.90643900  0.09356100  0.25000000  1
  O  O10  1  0.31418600  0.86661200  0.37232500  1
  O  O11  1  0.13338800  0.68581400  0.12767500  1
  O  O12  1  0.68581400  0.13338800  0.62767500  1
  O  O13  1  0.86661200  0.31418600  0.87232500  1
