# generated using pymatgen
data_PrAl4Co
_symmetry_space_group_name_H-M   'P 1'
_cell_length_a   4.03311300
_cell_length_b   6.90513500
_cell_length_c   7.67473600
_cell_angle_alpha   90.00000000
_cell_angle_beta   90.00000000
_cell_angle_gamma   90.00000000
_symmetry_Int_Tables_number   1
_chemical_formula_structural   PrAl4Co
_chemical_formula_sum   'Pr2 Al8 Co2'
_cell_volume   213.73517903
_cell_formula_units_Z   2
loop_
 _symmetry_equiv_pos_site_id
 _symmetry_equiv_pos_as_xyz
  1  'x, y, z'
loop_
 _atom_site_type_symbol
 _atom_site_label
 _atom_site_symmetry_multiplicity
 _atom_site_fract_x
 _atom_site_fract_y
 _atom_site_fract_z
 _atom_site_occupancy
  Pr  Pr0  1  0.00000000  0.88402900  0.25000000  1
  Pr  Pr1  1  0.00000000  0.11597100  0.75000000  1
  Al  Al2  1  0.00000000  0.50000000  0.00000000  1
  Al  Al3  1  0.00000000  0.50000000  0.50000000  1
  Al  Al4  1  0.50000000  0.54175800  0.25000000  1
  Al  Al5  1  0.50000000  0.79881000  0.57078200  1
  Al  Al6  1  0.50000000  0.79881000  0.92921800  1
  Al  Al7  1  0.50000000  0.20119000  0.07078200  1
  Al  Al8  1  0.50000000  0.20119000  0.42921800  1
  Al  Al9  1  0.50000000  0.45824200  0.75000000  1
  Co  Co10  1  0.00000000  0.68310600  0.75000000  1
  Co  Co11  1  0.00000000  0.31689400  0.25000000  1
