# generated using pymatgen
data_Tm2Ni12As7
_symmetry_space_group_name_H-M   'P 1'
_cell_length_a   9.35234667
_cell_length_b   9.35234667
_cell_length_c   3.80467700
_cell_angle_alpha   90.00000000
_cell_angle_beta   90.00000000
_cell_angle_gamma   120.00000477
_symmetry_Int_Tables_number   1
_chemical_formula_structural   Tm2Ni12As7
_chemical_formula_sum   'Tm2 Ni12 As7'
_cell_volume   288.19709428
_cell_formula_units_Z   1
loop_
 _symmetry_equiv_pos_site_id
 _symmetry_equiv_pos_as_xyz
  1  'x, y, z'
loop_
 _atom_site_type_symbol
 _atom_site_label
 _atom_site_symmetry_multiplicity
 _atom_site_fract_x
 _atom_site_fract_y
 _atom_site_fract_z
 _atom_site_occupancy
  Tm  Tm0  1  0.00000000  0.00000000  0.00000000  1
  Tm  Tm1  1  0.33333300  0.66666700  0.50000000  1
  Ni  Ni2  1  0.81866700  0.61391300  0.00000000  1
  Ni  Ni3  1  0.38608700  0.20475500  0.00000000  1
  Ni  Ni4  1  0.79524500  0.18133300  0.00000000  1
  Ni  Ni5  1  0.04469800  0.75903800  0.50000000  1
  Ni  Ni6  1  0.24096200  0.28566000  0.50000000  1
  Ni  Ni7  1  0.71434000  0.95530200  0.50000000  1
  Ni  Ni8  1  0.10742800  0.38978200  0.00000000  1
  Ni  Ni9  1  0.61021800  0.71764600  0.00000000  1
  Ni  Ni10  1  0.28235400  0.89257200  0.00000000  1
  Ni  Ni11  1  0.87945500  0.42889800  0.50000000  1
  Ni  Ni12  1  0.57110200  0.45055700  0.50000000  1
  Ni  Ni13  1  0.54944300  0.12054500  0.50000000  1
  As  As14  1  0.66666700  0.33333300  0.00000000  1
  As  As15  1  0.77886800  0.74341000  0.50000000  1
  As  As16  1  0.25659000  0.03545800  0.50000000  1
  As  As17  1  0.96454200  0.22113200  0.50000000  1
  As  As18  1  0.07076100  0.61709400  0.00000000  1
  As  As19  1  0.38290600  0.45366700  0.00000000  1
  As  As20  1  0.54633300  0.92923900  0.00000000  1
