# generated using pymatgen
data_YbAgSb
_symmetry_space_group_name_H-M   'P 1'
_cell_length_a   4.63275700
_cell_length_b   7.70196800
_cell_length_c   8.40349100
_cell_angle_alpha   90.00000000
_cell_angle_beta   90.00000000
_cell_angle_gamma   90.00000000
_symmetry_Int_Tables_number   1
_chemical_formula_structural   YbAgSb
_chemical_formula_sum   'Yb4 Ag4 Sb4'
_cell_volume   299.84787137
_cell_formula_units_Z   4
loop_
 _symmetry_equiv_pos_site_id
 _symmetry_equiv_pos_as_xyz
  1  'x, y, z'
loop_
 _atom_site_type_symbol
 _atom_site_label
 _atom_site_symmetry_multiplicity
 _atom_site_fract_x
 _atom_site_fract_y
 _atom_site_fract_z
 _atom_site_occupancy
  Yb  Yb0  1  0.25000000  0.51729800  0.19914300  1
  Yb  Yb1  1  0.75000000  0.48270200  0.80085700  1
  Yb  Yb2  1  0.25000000  0.01729800  0.30085700  1
  Yb  Yb3  1  0.75000000  0.98270200  0.69914300  1
  Ag  Ag4  1  0.25000000  0.64490300  0.56618100  1
  Ag  Ag5  1  0.75000000  0.35509700  0.43381900  1
  Ag  Ag6  1  0.25000000  0.14490300  0.93381900  1
  Ag  Ag7  1  0.75000000  0.85509700  0.06618100  1
  Sb  Sb8  1  0.75000000  0.74287700  0.38962200  1
  Sb  Sb9  1  0.25000000  0.25712300  0.61037800  1
  Sb  Sb10  1  0.75000000  0.24287700  0.11037800  1
  Sb  Sb11  1  0.25000000  0.75712300  0.88962200  1
