# generated using pymatgen
data_Zr2CoOs
_symmetry_space_group_name_H-M   'P 1'
_cell_length_a   4.60963056
_cell_length_b   4.61044723
_cell_length_c   4.61044935
_cell_angle_alpha   60.00006595
_cell_angle_beta   59.99399207
_cell_angle_gamma   59.99400729
_symmetry_Int_Tables_number   1
_chemical_formula_structural   Zr2CoOs
_chemical_formula_sum   'Zr2 Co1 Os1'
_cell_volume   69.27846478
_cell_formula_units_Z   1
loop_
 _symmetry_equiv_pos_site_id
 _symmetry_equiv_pos_as_xyz
  1  'x, y, z'
loop_
 _atom_site_type_symbol
 _atom_site_label
 _atom_site_symmetry_multiplicity
 _atom_site_fract_x
 _atom_site_fract_y
 _atom_site_fract_z
 _atom_site_occupancy
  Zr  Zr0  1  0.00006000  0.99998000  0.99998000  1
  Zr  Zr1  1  0.49994000  0.50002000  0.50002000  1
  Co  Co2  1  0.25000000  0.25000000  0.25000000  1
  Os  Os3  1  0.75000100  0.75000000  0.75000000  1
