# generated using pymatgen
data_PrNiC2
_symmetry_space_group_name_H-M   'P 1'
_cell_length_a   3.81750183
_cell_length_b   3.81750183
_cell_length_c   3.89682400
_cell_angle_alpha   90.00000000
_cell_angle_beta   90.00000000
_cell_angle_gamma   106.76490725
_symmetry_Int_Tables_number   1
_chemical_formula_structural   PrNiC2
_chemical_formula_sum   'Pr1 Ni1 C2'
_cell_volume   54.37589564
_cell_formula_units_Z   1
loop_
 _symmetry_equiv_pos_site_id
 _symmetry_equiv_pos_as_xyz
  1  'x, y, z'
loop_
 _atom_site_type_symbol
 _atom_site_label
 _atom_site_symmetry_multiplicity
 _atom_site_fract_x
 _atom_site_fract_y
 _atom_site_fract_z
 _atom_site_occupancy
  Pr  Pr0  1  0.99805400  0.00194600  0.00000000  1
  Ni  Ni1  1  0.38468400  0.61531600  0.50000000  1
  C  C2  1  0.54639800  0.15413600  0.50000000  1
  C  C3  1  0.84586400  0.45360200  0.50000000  1
