# generated using pymatgen
data_RbAu3Se2
_symmetry_space_group_name_H-M   'P 1'
_cell_length_a   6.28977394
_cell_length_b   6.28977394
_cell_length_c   5.63066500
_cell_angle_alpha   90.00000000
_cell_angle_beta   90.00000000
_cell_angle_gamma   119.99999938
_symmetry_Int_Tables_number   1
_chemical_formula_structural   RbAu3Se2
_chemical_formula_sum   'Rb1 Au3 Se2'
_cell_volume   192.91251263
_cell_formula_units_Z   1
loop_
 _symmetry_equiv_pos_site_id
 _symmetry_equiv_pos_as_xyz
  1  'x, y, z'
loop_
 _atom_site_type_symbol
 _atom_site_label
 _atom_site_symmetry_multiplicity
 _atom_site_fract_x
 _atom_site_fract_y
 _atom_site_fract_z
 _atom_site_occupancy
  Rb  Rb0  1  0.00000000  0.00000000  0.50000000  1
  Au  Au1  1  0.00000000  0.50000000  0.00000000  1
  Au  Au2  1  0.50000000  0.00000000  0.00000000  1
  Au  Au3  1  0.50000000  0.50000000  0.00000000  1
  Se  Se4  1  0.33333300  0.66666700  0.69897500  1
  Se  Se5  1  0.66666700  0.33333300  0.30102500  1
