# generated using pymatgen
data_Tm6GaCo2
_symmetry_space_group_name_H-M   'P 1'
_cell_length_a   8.17724616
_cell_length_b   8.17724616
_cell_length_c   8.17724616
_cell_angle_alpha   111.55440186
_cell_angle_beta   110.22135060
_cell_angle_gamma   106.67649874
_symmetry_Int_Tables_number   1
_chemical_formula_structural   Tm6GaCo2
_chemical_formula_sum   'Tm12 Ga2 Co4'
_cell_volume   420.11337662
_cell_formula_units_Z   2
loop_
 _symmetry_equiv_pos_site_id
 _symmetry_equiv_pos_as_xyz
  1  'x, y, z'
loop_
 _atom_site_type_symbol
 _atom_site_label
 _atom_site_symmetry_multiplicity
 _atom_site_fract_x
 _atom_site_fract_y
 _atom_site_fract_z
 _atom_site_occupancy
  Tm  Tm0  1  0.56330300  0.26448500  0.29881800  1
  Tm  Tm1  1  0.18358000  0.21794700  0.40152700  1
  Tm  Tm2  1  0.18358000  0.78205300  0.96563400  1
  Tm  Tm3  1  0.67977200  0.48475200  0.80498000  1
  Tm  Tm4  1  0.67977200  0.87479200  0.19502000  1
  Tm  Tm5  1  0.96566700  0.26448500  0.70118200  1
  Tm  Tm6  1  0.03433300  0.73551500  0.29881800  1
  Tm  Tm7  1  0.32022800  0.12520800  0.80498000  1
  Tm  Tm8  1  0.32022800  0.51524800  0.19502000  1
  Tm  Tm9  1  0.81642000  0.21794700  0.03436600  1
  Tm  Tm10  1  0.81642000  0.78205300  0.59847300  1
  Tm  Tm11  1  0.43669700  0.73551500  0.70118200  1
  Ga  Ga12  1  0.00000000  0.50000000  0.50000000  1
  Ga  Ga13  1  0.50000000  0.00000000  0.50000000  1
  Co  Co14  1  0.88571800  0.88571800  0.00000000  1
  Co  Co15  1  0.36449100  0.50000000  0.86449100  1
  Co  Co16  1  0.63550900  0.50000000  0.13550900  1
  Co  Co17  1  0.11428200  0.11428200  0.00000000  1
