# generated using pymatgen
data_Ba2Si
_symmetry_space_group_name_H-M   'P 1'
_cell_length_a   5.41883500
_cell_length_b   8.52438700
_cell_length_c   10.17434700
_cell_angle_alpha   90.00000000
_cell_angle_beta   90.00000000
_cell_angle_gamma   90.00000000
_symmetry_Int_Tables_number   1
_chemical_formula_structural   Ba2Si
_chemical_formula_sum   'Ba8 Si4'
_cell_volume   469.97594591
_cell_formula_units_Z   4
loop_
 _symmetry_equiv_pos_site_id
 _symmetry_equiv_pos_as_xyz
  1  'x, y, z'
loop_
 _atom_site_type_symbol
 _atom_site_label
 _atom_site_symmetry_multiplicity
 _atom_site_fract_x
 _atom_site_fract_y
 _atom_site_fract_z
 _atom_site_occupancy
  Ba  Ba0  1  0.75000000  0.47938800  0.66971400  1
  Ba  Ba1  1  0.25000000  0.52061200  0.33028600  1
  Ba  Ba2  1  0.75000000  0.97938800  0.83028600  1
  Ba  Ba3  1  0.25000000  0.02061200  0.16971400  1
  Ba  Ba4  1  0.25000000  0.14453100  0.58292200  1
  Ba  Ba5  1  0.75000000  0.85546900  0.41707800  1
  Ba  Ba6  1  0.25000000  0.64453100  0.91707800  1
  Ba  Ba7  1  0.75000000  0.35546900  0.08292200  1
  Si  Si8  1  0.25000000  0.74910000  0.60135700  1
  Si  Si9  1  0.75000000  0.25090000  0.39864300  1
  Si  Si10  1  0.25000000  0.24910000  0.89864300  1
  Si  Si11  1  0.75000000  0.75090000  0.10135700  1
