# generated using pymatgen
data_KGeBr3
_symmetry_space_group_name_H-M   'P 1'
_cell_length_a   7.64571500
_cell_length_b   5.98758400
_cell_length_c   8.62357746
_cell_angle_alpha   69.75290531
_cell_angle_beta   90.00000000
_cell_angle_gamma   90.00000000
_symmetry_Int_Tables_number   1
_chemical_formula_structural   KGeBr3
_chemical_formula_sum   'K2 Ge2 Br6'
_cell_volume   370.38785269
_cell_formula_units_Z   2
loop_
 _symmetry_equiv_pos_site_id
 _symmetry_equiv_pos_as_xyz
  1  'x, y, z'
loop_
 _atom_site_type_symbol
 _atom_site_label
 _atom_site_symmetry_multiplicity
 _atom_site_fract_x
 _atom_site_fract_y
 _atom_site_fract_z
 _atom_site_occupancy
  K  K0  1  0.75000000  0.16068800  0.18599000  1
  K  K1  1  0.25000000  0.83931200  0.81401000  1
  Ge  Ge2  1  0.75000000  0.40541600  0.61840900  1
  Ge  Ge3  1  0.25000000  0.59458400  0.38159100  1
  Br  Br4  1  0.00005500  0.33402100  0.82350400  1
  Br  Br5  1  0.50005500  0.66597900  0.17649600  1
  Br  Br6  1  0.25000000  0.00961200  0.39523500  1
  Br  Br7  1  0.75000000  0.99038800  0.60476500  1
  Br  Br8  1  0.99994500  0.66597900  0.17649600  1
  Br  Br9  1  0.49994500  0.33402100  0.82350400  1
