# generated using pymatgen
data_La(PdO2)2
_symmetry_space_group_name_H-M   'P 1'
_cell_length_a   6.70778113
_cell_length_b   6.70778113
_cell_length_c   6.70778113
_cell_angle_alpha   126.88190948
_cell_angle_beta   126.88190948
_cell_angle_gamma   78.44342658
_symmetry_Int_Tables_number   1
_chemical_formula_structural   La(PdO2)2
_chemical_formula_sum   'La2 Pd4 O8'
_cell_volume   186.97383122
_cell_formula_units_Z   2
loop_
 _symmetry_equiv_pos_site_id
 _symmetry_equiv_pos_as_xyz
  1  'x, y, z'
loop_
 _atom_site_type_symbol
 _atom_site_label
 _atom_site_symmetry_multiplicity
 _atom_site_fract_x
 _atom_site_fract_y
 _atom_site_fract_z
 _atom_site_occupancy
  La  La0  1  0.75000000  0.25000000  0.50000000  1
  La  La1  1  0.00000000  0.00000000  0.00000000  1
  Pd  Pd2  1  0.37500000  0.62500000  0.25000000  1
  Pd  Pd3  1  0.87500000  0.62500000  0.25000000  1
  Pd  Pd4  1  0.37500000  0.62500000  0.75000000  1
  Pd  Pd5  1  0.37500000  0.12500000  0.75000000  1
  O  O6  1  0.59428400  0.95109200  0.94798700  1
  O  O7  1  0.39629700  0.84428400  0.14319200  1
  O  O8  1  0.70109200  0.25310400  0.85680800  1
  O  O9  1  0.00310400  0.64629700  0.05201300  1
  O  O10  1  0.15571600  0.29890800  0.55201300  1
  O  O11  1  0.35370300  0.40571600  0.35680800  1
  O  O12  1  0.74689600  0.60370300  0.44798700  1
  O  O13  1  0.04890800  0.99689600  0.64319200  1
