# generated using pymatgen
data_Nb3CrSe6
_symmetry_space_group_name_H-M   'P 1'
_cell_length_a   6.05364891
_cell_length_b   6.05364891
_cell_length_c   12.72122700
_cell_angle_alpha   90.00000000
_cell_angle_beta   90.00000000
_cell_angle_gamma   120.00000990
_symmetry_Int_Tables_number   1
_chemical_formula_structural   Nb3CrSe6
_chemical_formula_sum   'Nb6 Cr2 Se12'
_cell_volume   403.73281492
_cell_formula_units_Z   2
loop_
 _symmetry_equiv_pos_site_id
 _symmetry_equiv_pos_as_xyz
  1  'x, y, z'
loop_
 _atom_site_type_symbol
 _atom_site_label
 _atom_site_symmetry_multiplicity
 _atom_site_fract_x
 _atom_site_fract_y
 _atom_site_fract_z
 _atom_site_occupancy
  Nb  Nb0  1  0.33333300  0.66666700  0.00061000  1
  Nb  Nb1  1  0.00000000  0.00000000  0.00000000  1
  Nb  Nb2  1  0.00000000  0.00000000  0.50000000  1
  Nb  Nb3  1  0.33333300  0.66666700  0.49939000  1
  Nb  Nb4  1  0.66666700  0.33333300  0.99939000  1
  Nb  Nb5  1  0.66666700  0.33333300  0.50061000  1
  Cr  Cr6  1  0.33333300  0.66666700  0.25000000  1
  Cr  Cr7  1  0.66666700  0.33333300  0.75000000  1
  Se  Se8  1  0.33376300  0.00578200  0.13219200  1
  Se  Se9  1  0.66623700  0.99421800  0.63219200  1
  Se  Se10  1  0.99421800  0.32798000  0.13219200  1
  Se  Se11  1  0.67202000  0.00578200  0.36780800  1
  Se  Se12  1  0.33376300  0.32798000  0.36780800  1
  Se  Se13  1  0.99421800  0.66623700  0.36780800  1
  Se  Se14  1  0.67202000  0.66623700  0.13219200  1
  Se  Se15  1  0.32798000  0.33376300  0.63219200  1
  Se  Se16  1  0.00578200  0.67202000  0.63219200  1
  Se  Se17  1  0.32798000  0.99421800  0.86780800  1
  Se  Se18  1  0.66623700  0.67202000  0.86780800  1
  Se  Se19  1  0.00578200  0.33376300  0.86780800  1
