# generated using pymatgen
data_Hf(TlTe)4
_symmetry_space_group_name_H-M   'P 1'
_cell_length_a   9.87451971
_cell_length_b   9.87451971
_cell_length_c   9.87452030
_cell_angle_alpha   98.36522778
_cell_angle_beta   98.36522778
_cell_angle_gamma   98.36522130
_symmetry_Int_Tables_number   1
_chemical_formula_structural   Hf(TlTe)4
_chemical_formula_sum   'Hf3 Tl12 Te12'
_cell_volume   928.68887921
_cell_formula_units_Z   3
loop_
 _symmetry_equiv_pos_site_id
 _symmetry_equiv_pos_as_xyz
  1  'x, y, z'
loop_
 _atom_site_type_symbol
 _atom_site_label
 _atom_site_symmetry_multiplicity
 _atom_site_fract_x
 _atom_site_fract_y
 _atom_site_fract_z
 _atom_site_occupancy
  Hf  Hf0  1  0.75540800  0.75540800  0.75540800  1
  Hf  Hf1  1  0.24459200  0.24459200  0.24459200  1
  Hf  Hf2  1  0.50000000  0.50000000  0.50000000  1
  Tl  Tl3  1  0.66501100  0.11782700  0.98829700  1
  Tl  Tl4  1  0.98829700  0.66501100  0.11782700  1
  Tl  Tl5  1  0.11782700  0.98829700  0.66501100  1
  Tl  Tl6  1  0.33498900  0.88217300  0.01170300  1
  Tl  Tl7  1  0.01170300  0.33498900  0.88217300  1
  Tl  Tl8  1  0.88217300  0.01170300  0.33498900  1
  Tl  Tl9  1  0.63529800  0.46654400  0.12959100  1
  Tl  Tl10  1  0.12959100  0.63529800  0.46654400  1
  Tl  Tl11  1  0.46654400  0.12959100  0.63529800  1
  Tl  Tl12  1  0.36470200  0.53345600  0.87040900  1
  Tl  Tl13  1  0.87040900  0.36470200  0.53345600  1
  Tl  Tl14  1  0.53345600  0.87040900  0.36470200  1
  Te  Te15  1  0.70539600  0.80404400  0.03559400  1
  Te  Te16  1  0.03559400  0.70539600  0.80404400  1
  Te  Te17  1  0.80404400  0.03559400  0.70539600  1
  Te  Te18  1  0.29460400  0.19595700  0.96440600  1
  Te  Te19  1  0.96440600  0.29460400  0.19595600  1
  Te  Te20  1  0.19595600  0.96440600  0.29460400  1
  Te  Te21  1  0.45289800  0.75947400  0.65808500  1
  Te  Te22  1  0.65808500  0.45289800  0.75947400  1
  Te  Te23  1  0.75947400  0.65808500  0.45289800  1
  Te  Te24  1  0.54710200  0.24052600  0.34191500  1
  Te  Te25  1  0.34191500  0.54710200  0.24052600  1
  Te  Te26  1  0.24052600  0.34191500  0.54710200  1
