# generated using pymatgen
data_Ge3Ir2Se3
_symmetry_space_group_name_H-M   'P 1'
_cell_length_a   8.68668680
_cell_length_b   8.68668680
_cell_length_c   8.68668692
_cell_angle_alpha   89.83148198
_cell_angle_beta   89.83148198
_cell_angle_gamma   89.83147293
_symmetry_Int_Tables_number   1
_chemical_formula_structural   Ge3Ir2Se3
_chemical_formula_sum   'Ge12 Ir8 Se12'
_cell_volume   655.47611564
_cell_formula_units_Z   4
loop_
 _symmetry_equiv_pos_site_id
 _symmetry_equiv_pos_as_xyz
  1  'x, y, z'
loop_
 _atom_site_type_symbol
 _atom_site_label
 _atom_site_symmetry_multiplicity
 _atom_site_fract_x
 _atom_site_fract_y
 _atom_site_fract_z
 _atom_site_occupancy
  Ge  Ge0  1  0.50231700  0.16841700  0.65113000  1
  Ge  Ge1  1  0.65113000  0.50231700  0.16841700  1
  Ge  Ge2  1  0.16841700  0.65113000  0.50231700  1
  Ge  Ge3  1  0.49768300  0.83158300  0.34887000  1
  Ge  Ge4  1  0.34887000  0.49768300  0.83158300  1
  Ge  Ge5  1  0.83158300  0.34887000  0.49768300  1
  Ge  Ge6  1  0.00228300  0.66875800  0.84984700  1
  Ge  Ge7  1  0.84984700  0.00228300  0.66875800  1
  Ge  Ge8  1  0.66875800  0.84984700  0.00228300  1
  Ge  Ge9  1  0.99771700  0.33124200  0.15015300  1
  Ge  Ge10  1  0.15015300  0.99771700  0.33124200  1
  Ge  Ge11  1  0.33124200  0.15015300  0.99771700  1
  Ir  Ir12  1  0.75287200  0.75287200  0.75287200  1
  Ir  Ir13  1  0.24712800  0.24712800  0.24712800  1
  Ir  Ir14  1  0.74895900  0.25384400  0.24777900  1
  Ir  Ir15  1  0.24777900  0.74895900  0.25384400  1
  Ir  Ir16  1  0.25384400  0.24777900  0.74895900  1
  Ir  Ir17  1  0.25104100  0.74615600  0.75222100  1
  Ir  Ir18  1  0.75222100  0.25104100  0.74615600  1
  Ir  Ir19  1  0.74615600  0.75222100  0.25104100  1
  Se  Se20  1  0.49686200  0.14727100  0.35727200  1
  Se  Se21  1  0.35727200  0.49686200  0.14727100  1
  Se  Se22  1  0.14727100  0.35727200  0.49686200  1
  Se  Se23  1  0.50313800  0.85272900  0.64272800  1
  Se  Se24  1  0.64272800  0.50313800  0.85272900  1
  Se  Se25  1  0.85272900  0.64272800  0.50313800  1
  Se  Se26  1  0.99953400  0.64737100  0.14365800  1
  Se  Se27  1  0.14365800  0.99953400  0.64737100  1
  Se  Se28  1  0.64737100  0.14365800  0.99953400  1
  Se  Se29  1  0.00046600  0.35262900  0.85634200  1
  Se  Se30  1  0.85634200  0.00046600  0.35262900  1
  Se  Se31  1  0.35262900  0.85634200  0.00046600  1
