# generated using pymatgen
data_Ba2HfS4
_symmetry_space_group_name_H-M   'P 1'
_cell_length_a   8.67590223
_cell_length_b   8.67590223
_cell_length_c   8.67590223
_cell_angle_alpha   146.73464282
_cell_angle_beta   146.73464282
_cell_angle_gamma   47.75684814
_symmetry_Int_Tables_number   1
_chemical_formula_structural   Ba2HfS4
_chemical_formula_sum   'Ba2 Hf1 S4'
_cell_volume   195.69890249
_cell_formula_units_Z   1
loop_
 _symmetry_equiv_pos_site_id
 _symmetry_equiv_pos_as_xyz
  1  'x, y, z'
loop_
 _atom_site_type_symbol
 _atom_site_label
 _atom_site_symmetry_multiplicity
 _atom_site_fract_x
 _atom_site_fract_y
 _atom_site_fract_z
 _atom_site_occupancy
  Ba  Ba0  1  0.35781300  0.35781300  0.00000000  1
  Ba  Ba1  1  0.64218700  0.64218700  0.00000000  1
  Hf  Hf2  1  0.00000000  0.00000000  0.00000000  1
  S  S3  1  0.50000000  0.00000000  0.50000000  1
  S  S4  1  0.00000000  0.50000000  0.50000000  1
  S  S5  1  0.83818200  0.83818200  0.00000000  1
  S  S6  1  0.16181800  0.16181800  0.00000000  1
