# generated using pymatgen
data_CsAg5Te3
_symmetry_space_group_name_H-M   'P 1'
_cell_length_a   14.91878400
_cell_length_b   14.91878400
_cell_length_c   4.65454500
_cell_angle_alpha   90.00000000
_cell_angle_beta   90.00000000
_cell_angle_gamma   90.00000000
_symmetry_Int_Tables_number   1
_chemical_formula_structural   CsAg5Te3
_chemical_formula_sum   'Cs4 Ag20 Te12'
_cell_volume   1035.96262076
_cell_formula_units_Z   4
loop_
 _symmetry_equiv_pos_site_id
 _symmetry_equiv_pos_as_xyz
  1  'x, y, z'
loop_
 _atom_site_type_symbol
 _atom_site_label
 _atom_site_symmetry_multiplicity
 _atom_site_fract_x
 _atom_site_fract_y
 _atom_site_fract_z
 _atom_site_occupancy
  Cs  Cs0  1  0.88747000  0.11253000  0.50000000  1
  Cs  Cs1  1  0.61253000  0.61253000  0.00000000  1
  Cs  Cs2  1  0.38747000  0.38747000  0.00000000  1
  Cs  Cs3  1  0.11253000  0.88747000  0.50000000  1
  Ag  Ag4  1  0.67820700  0.32179300  0.00000000  1
  Ag  Ag5  1  0.82179300  0.82179300  0.50000000  1
  Ag  Ag6  1  0.17820700  0.17820700  0.50000000  1
  Ag  Ag7  1  0.32179300  0.67820700  0.00000000  1
  Ag  Ag8  1  0.39605200  0.98265300  0.50000000  1
  Ag  Ag9  1  0.60394800  0.01734700  0.50000000  1
  Ag  Ag10  1  0.51734700  0.89605200  0.00000000  1
  Ag  Ag11  1  0.48265300  0.10394800  0.00000000  1
  Ag  Ag12  1  0.98265300  0.39605200  0.50000000  1
  Ag  Ag13  1  0.89605200  0.51734700  0.00000000  1
  Ag  Ag14  1  0.10394800  0.48265300  0.00000000  1
  Ag  Ag15  1  0.01734700  0.60394800  0.50000000  1
  Ag  Ag16  1  0.42061200  0.78757700  0.50000000  1
  Ag  Ag17  1  0.57938800  0.21242300  0.50000000  1
  Ag  Ag18  1  0.71242300  0.92061200  0.00000000  1
  Ag  Ag19  1  0.28757700  0.07938800  0.00000000  1
  Ag  Ag20  1  0.21242300  0.57938800  0.50000000  1
  Ag  Ag21  1  0.07938800  0.28757700  0.00000000  1
  Ag  Ag22  1  0.92061200  0.71242300  0.00000000  1
  Ag  Ag23  1  0.78757700  0.42061200  0.50000000  1
  Te  Te24  1  0.10155200  0.10155200  0.00000000  1
  Te  Te25  1  0.60155200  0.39844800  0.50000000  1
  Te  Te26  1  0.39844800  0.60155200  0.50000000  1
  Te  Te27  1  0.89844800  0.89844800  0.00000000  1
  Te  Te28  1  0.32862700  0.88300400  0.00000000  1
  Te  Te29  1  0.67137300  0.11699600  0.00000000  1
  Te  Te30  1  0.61699600  0.82862700  0.50000000  1
  Te  Te31  1  0.38300400  0.17137300  0.50000000  1
  Te  Te32  1  0.88300400  0.32862700  0.00000000  1
  Te  Te33  1  0.82862700  0.61699600  0.50000000  1
  Te  Te34  1  0.17137300  0.38300400  0.50000000  1
  Te  Te35  1  0.11699600  0.67137300  0.00000000  1
