# generated using pymatgen
data_FeSb3
_symmetry_space_group_name_H-M   'P 1'
_cell_length_a   7.94865136
_cell_length_b   7.94865136
_cell_length_c   7.94865136
_cell_angle_alpha   109.47122063
_cell_angle_beta   109.47122063
_cell_angle_gamma   109.47122063
_symmetry_Int_Tables_number   1
_chemical_formula_structural   FeSb3
_chemical_formula_sum   'Fe4 Sb12'
_cell_volume   386.59697752
_cell_formula_units_Z   4
loop_
 _symmetry_equiv_pos_site_id
 _symmetry_equiv_pos_as_xyz
  1  'x, y, z'
loop_
 _atom_site_type_symbol
 _atom_site_label
 _atom_site_symmetry_multiplicity
 _atom_site_fract_x
 _atom_site_fract_y
 _atom_site_fract_z
 _atom_site_occupancy
  Fe  Fe0  1  0.50000000  0.50000000  0.50000000  1
  Fe  Fe1  1  0.50000000  0.00000000  0.00000000  1
  Fe  Fe2  1  0.00000000  0.00000000  0.50000000  1
  Fe  Fe3  1  0.00000000  0.50000000  0.00000000  1
  Sb  Sb4  1  0.66908700  0.84029300  0.50938000  1
  Sb  Sb5  1  0.84029300  0.50938000  0.66908700  1
  Sb  Sb6  1  0.50938000  0.66908700  0.84029300  1
  Sb  Sb7  1  0.66908700  0.15970700  0.82879500  1
  Sb  Sb8  1  0.84029300  0.17120500  0.33091300  1
  Sb  Sb9  1  0.15970700  0.82879500  0.66908700  1
  Sb  Sb10  1  0.17120500  0.33091300  0.84029300  1
  Sb  Sb11  1  0.15970700  0.49062000  0.33091300  1
  Sb  Sb12  1  0.33091300  0.15970700  0.49062000  1
  Sb  Sb13  1  0.49062000  0.33091300  0.15970700  1
  Sb  Sb14  1  0.33091300  0.84029300  0.17120500  1
  Sb  Sb15  1  0.82879500  0.66908700  0.15970700  1
