# generated using pymatgen
data_BaReN3
_symmetry_space_group_name_H-M   'P 1'
_cell_length_a   8.02590000
_cell_length_b   8.02590000
_cell_length_c   6.24121210
_cell_angle_alpha   80.70891554
_cell_angle_beta   80.70891554
_cell_angle_gamma   90.66587706
_symmetry_Int_Tables_number   1
_chemical_formula_structural   BaReN3
_chemical_formula_sum   'Ba4 Re4 N12'
_cell_volume   391.25551584
_cell_formula_units_Z   4
loop_
 _symmetry_equiv_pos_site_id
 _symmetry_equiv_pos_as_xyz
  1  'x, y, z'
loop_
 _atom_site_type_symbol
 _atom_site_label
 _atom_site_symmetry_multiplicity
 _atom_site_fract_x
 _atom_site_fract_y
 _atom_site_fract_z
 _atom_site_occupancy
  Ba  Ba0  1  0.32718000  0.67282000  0.25000000  1
  Ba  Ba1  1  0.09971000  0.90029000  0.75000000  1
  Ba  Ba2  1  0.67282000  0.32718000  0.75000000  1
  Ba  Ba3  1  0.90029000  0.09971000  0.25000000  1
  Re  Re4  1  0.20522000  0.36922000  0.75859000  1
  Re  Re5  1  0.63078000  0.79478000  0.74141000  1
  Re  Re6  1  0.36922000  0.20522000  0.25859000  1
  Re  Re7  1  0.79478000  0.63078000  0.24141000  1
  N  N8  1  0.76443000  0.98035000  0.67783000  1
  N  N9  1  0.64459000  0.68047000  0.49060000  1
  N  N10  1  0.35541000  0.31953000  0.50940000  1
  N  N11  1  0.98035000  0.76443000  0.17783000  1
  N  N12  1  0.85164000  0.42180000  0.31927000  1
  N  N13  1  0.23557000  0.01965000  0.32217000  1
  N  N14  1  0.14836000  0.57820000  0.68073000  1
  N  N15  1  0.42180000  0.85164000  0.81927000  1
  N  N16  1  0.57820000  0.14836000  0.18073000  1
  N  N17  1  0.68047000  0.64459000  0.99060000  1
  N  N18  1  0.31953000  0.35541000  0.00940000  1
  N  N19  1  0.01965000  0.23557000  0.82217000  1
