# generated using pymatgen
data_Li2UO4
_symmetry_space_group_name_H-M   'P 1'
_cell_length_a   5.18215600
_cell_length_b   6.10495300
_cell_length_c   10.67378600
_cell_angle_alpha   90.00000000
_cell_angle_beta   90.00000000
_cell_angle_gamma   90.00000000
_symmetry_Int_Tables_number   1
_chemical_formula_structural   Li2UO4
_chemical_formula_sum   'Li8 U4 O16'
_cell_volume   337.68463379
_cell_formula_units_Z   4
loop_
 _symmetry_equiv_pos_site_id
 _symmetry_equiv_pos_as_xyz
  1  'x, y, z'
loop_
 _atom_site_type_symbol
 _atom_site_label
 _atom_site_symmetry_multiplicity
 _atom_site_fract_x
 _atom_site_fract_y
 _atom_site_fract_z
 _atom_site_occupancy
  Li  Li0  1  0.54020000  0.75000000  0.92377400  1
  Li  Li1  1  0.04020000  0.25000000  0.57622600  1
  Li  Li2  1  0.45980000  0.25000000  0.07622600  1
  Li  Li3  1  0.95980000  0.75000000  0.42377400  1
  Li  Li4  1  0.50000000  0.00000000  0.50000000  1
  Li  Li5  1  0.00000000  0.00000000  0.00000000  1
  Li  Li6  1  0.50000000  0.50000000  0.50000000  1
  Li  Li7  1  0.00000000  0.50000000  0.00000000  1
  U  U8  1  0.98769700  0.75000000  0.73838300  1
  U  U9  1  0.48769700  0.25000000  0.76161700  1
  U  U10  1  0.01230300  0.25000000  0.26161700  1
  U  U11  1  0.51230300  0.75000000  0.23838300  1
  O  O12  1  0.17377700  0.75000000  0.89771000  1
  O  O13  1  0.21442400  0.25000000  0.41404800  1
  O  O14  1  0.28557600  0.25000000  0.91404800  1
  O  O15  1  0.71442400  0.75000000  0.08595200  1
  O  O16  1  0.26609800  0.01364700  0.16726400  1
  O  O17  1  0.76609800  0.98635300  0.33273600  1
  O  O18  1  0.73390200  0.51364700  0.83273600  1
  O  O19  1  0.23390200  0.48635300  0.66726400  1
  O  O20  1  0.73390200  0.98635300  0.83273600  1
  O  O21  1  0.23390200  0.01364700  0.66726400  1
  O  O22  1  0.26609800  0.48635300  0.16726400  1
  O  O23  1  0.76609800  0.51364700  0.33273600  1
  O  O24  1  0.82622300  0.25000000  0.10229000  1
  O  O25  1  0.32622300  0.75000000  0.39771000  1
  O  O26  1  0.78557600  0.75000000  0.58595200  1
  O  O27  1  0.67377700  0.25000000  0.60229000  1
