# generated using pymatgen
data_Al6Cd4TeO12
_symmetry_space_group_name_H-M   'P 1'
_cell_length_a   7.86202976
_cell_length_b   7.86202976
_cell_length_c   7.86202976
_cell_angle_alpha   109.47122063
_cell_angle_beta   109.47122063
_cell_angle_gamma   109.47122063
_symmetry_Int_Tables_number   1
_chemical_formula_structural   Al6Cd4TeO12
_chemical_formula_sum   'Al6 Cd4 Te1 O12'
_cell_volume   374.09522081
_cell_formula_units_Z   1
loop_
 _symmetry_equiv_pos_site_id
 _symmetry_equiv_pos_as_xyz
  1  'x, y, z'
loop_
 _atom_site_type_symbol
 _atom_site_label
 _atom_site_symmetry_multiplicity
 _atom_site_fract_x
 _atom_site_fract_y
 _atom_site_fract_z
 _atom_site_occupancy
  Al  Al0  1  0.75000000  0.50000000  0.25000000  1
  Al  Al1  1  0.25000000  0.50000000  0.75000000  1
  Al  Al2  1  0.50000000  0.75000000  0.25000000  1
  Al  Al3  1  0.50000000  0.25000000  0.75000000  1
  Al  Al4  1  0.25000000  0.75000000  0.50000000  1
  Al  Al5  1  0.75000000  0.25000000  0.50000000  1
  Cd  Cd6  1  0.35858600  0.35858600  0.35858600  1
  Cd  Cd7  1  0.00000000  0.64141400  0.00000000  1
  Cd  Cd8  1  0.00000000  0.00000000  0.64141400  1
  Cd  Cd9  1  0.64141400  0.00000000  0.00000000  1
  Te  Te10  1  0.00000000  0.00000000  0.00000000  1
  O  O11  1  0.72207000  0.00000000  0.43547300  1
  O  O12  1  0.27793000  0.71340400  0.27793000  1
  O  O13  1  0.28659600  0.56452700  0.56452700  1
  O  O14  1  0.56452700  0.56452700  0.28659600  1
  O  O15  1  0.00000000  0.43547300  0.72207000  1
  O  O16  1  0.71340400  0.27793000  0.27793000  1
  O  O17  1  0.27793000  0.27793000  0.71340400  1
  O  O18  1  0.72207000  0.43547300  0.00000000  1
  O  O19  1  0.43547300  0.00000000  0.72207000  1
  O  O20  1  0.43547300  0.72207000  0.00000000  1
  O  O21  1  0.56452700  0.28659600  0.56452700  1
  O  O22  1  0.00000000  0.72207000  0.43547300  1
