# generated using pymatgen
data_TbCuGe
_symmetry_space_group_name_H-M   'P 1'
_cell_length_a   4.26802828
_cell_length_b   4.26802828
_cell_length_c   7.31193400
_cell_angle_alpha   90.00000000
_cell_angle_beta   90.00000000
_cell_angle_gamma   120.00000440
_symmetry_Int_Tables_number   1
_chemical_formula_structural   TbCuGe
_chemical_formula_sum   'Tb2 Cu2 Ge2'
_cell_volume   115.34996118
_cell_formula_units_Z   2
loop_
 _symmetry_equiv_pos_site_id
 _symmetry_equiv_pos_as_xyz
  1  'x, y, z'
loop_
 _atom_site_type_symbol
 _atom_site_label
 _atom_site_symmetry_multiplicity
 _atom_site_fract_x
 _atom_site_fract_y
 _atom_site_fract_z
 _atom_site_occupancy
  Tb  Tb0  1  0.00000000  0.00000000  0.75204900  1
  Tb  Tb1  1  0.00000000  0.00000000  0.25204900  1
  Cu  Cu2  1  0.66666700  0.33333300  0.52956700  1
  Cu  Cu3  1  0.33333300  0.66666700  0.02956700  1
  Ge  Ge4  1  0.33333300  0.66666700  0.47888300  1
  Ge  Ge5  1  0.66666700  0.33333300  0.97888300  1
