# generated using pymatgen
data_K4Hf5O12
_symmetry_space_group_name_H-M   'P 1'
_cell_length_a   5.82458425
_cell_length_b   5.82458425
_cell_length_c   10.42041700
_cell_angle_alpha   90.00000000
_cell_angle_beta   90.00000000
_cell_angle_gamma   120.00000285
_symmetry_Int_Tables_number   1
_chemical_formula_structural   K4Hf5O12
_chemical_formula_sum   'K4 Hf5 O12'
_cell_volume   306.15797811
_cell_formula_units_Z   1
loop_
 _symmetry_equiv_pos_site_id
 _symmetry_equiv_pos_as_xyz
  1  'x, y, z'
loop_
 _atom_site_type_symbol
 _atom_site_label
 _atom_site_symmetry_multiplicity
 _atom_site_fract_x
 _atom_site_fract_y
 _atom_site_fract_z
 _atom_site_occupancy
  K  K0  1  0.00000000  0.00000000  0.32438500  1
  K  K1  1  0.00000000  0.00000000  0.67561500  1
  K  K2  1  0.33333300  0.66666700  0.11410900  1
  K  K3  1  0.66666700  0.33333300  0.88589100  1
  Hf  Hf4  1  0.33333300  0.66666700  0.47646400  1
  Hf  Hf5  1  0.66666700  0.33333300  0.52353600  1
  Hf  Hf6  1  0.00000000  0.00000000  0.00000000  1
  Hf  Hf7  1  0.33333300  0.66666700  0.78347300  1
  Hf  Hf8  1  0.66666700  0.33333300  0.21652700  1
  O  O9  1  0.83539100  0.16460900  0.12173000  1
  O  O10  1  0.83539100  0.67078300  0.12173000  1
  O  O11  1  0.32921700  0.16460900  0.12173000  1
  O  O12  1  0.67078300  0.83539100  0.87827000  1
  O  O13  1  0.16460900  0.32921700  0.87827000  1
  O  O14  1  0.16460900  0.83539100  0.87827000  1
  O  O15  1  0.50933900  0.49066100  0.37738700  1
  O  O16  1  0.50933900  0.01867900  0.37738700  1
  O  O17  1  0.98132100  0.49066100  0.37738700  1
  O  O18  1  0.01867900  0.50933900  0.62261300  1
  O  O19  1  0.49066100  0.98132100  0.62261300  1
  O  O20  1  0.49066100  0.50933900  0.62261300  1
