# generated using pymatgen
data_YSiAu
_symmetry_space_group_name_H-M   'P 1'
_cell_length_a   4.33245964
_cell_length_b   4.33245964
_cell_length_c   7.65724000
_cell_angle_alpha   90.00000000
_cell_angle_beta   90.00000000
_cell_angle_gamma   119.99999443
_symmetry_Int_Tables_number   1
_chemical_formula_structural   YSiAu
_chemical_formula_sum   'Y2 Si2 Au2'
_cell_volume   124.47208540
_cell_formula_units_Z   2
loop_
 _symmetry_equiv_pos_site_id
 _symmetry_equiv_pos_as_xyz
  1  'x, y, z'
loop_
 _atom_site_type_symbol
 _atom_site_label
 _atom_site_symmetry_multiplicity
 _atom_site_fract_x
 _atom_site_fract_y
 _atom_site_fract_z
 _atom_site_occupancy
  Y  Y0  1  0.00000000  0.00000000  0.49950000  1
  Y  Y1  1  0.00000000  0.00000000  0.99950000  1
  Si  Si2  1  0.66666700  0.33333300  0.27623100  1
  Si  Si3  1  0.33333300  0.66666700  0.77623100  1
  Au  Au4  1  0.33333300  0.66666700  0.23326900  1
  Au  Au5  1  0.66666700  0.33333300  0.73326900  1
