# generated using pymatgen
data_CaU(PO4)2
_symmetry_space_group_name_H-M   'P 1'
_cell_length_a   6.20149700
_cell_length_b   7.02821800
_cell_length_c   14.08095000
_cell_angle_alpha   90.00000000
_cell_angle_beta   90.00000000
_cell_angle_gamma   90.00000000
_symmetry_Int_Tables_number   1
_chemical_formula_structural   CaU(PO4)2
_chemical_formula_sum   'Ca4 U4 P8 O32'
_cell_volume   613.72486382
_cell_formula_units_Z   4
loop_
 _symmetry_equiv_pos_site_id
 _symmetry_equiv_pos_as_xyz
  1  'x, y, z'
loop_
 _atom_site_type_symbol
 _atom_site_label
 _atom_site_symmetry_multiplicity
 _atom_site_fract_x
 _atom_site_fract_y
 _atom_site_fract_z
 _atom_site_occupancy
  Ca  Ca0  1  0.89394600  0.75000000  0.61981200  1
  Ca  Ca1  1  0.39394600  0.25000000  0.88018800  1
  Ca  Ca2  1  0.10605400  0.25000000  0.38018800  1
  Ca  Ca3  1  0.60605400  0.75000000  0.11981200  1
  U  U4  1  0.12953700  0.75000000  0.87206100  1
  U  U5  1  0.62953700  0.25000000  0.62793900  1
  U  U6  1  0.87046300  0.25000000  0.12793900  1
  U  U7  1  0.37046300  0.75000000  0.37206100  1
  P  P8  1  0.40025800  0.75000000  0.62867700  1
  P  P9  1  0.90025800  0.25000000  0.87132300  1
  P  P10  1  0.59974200  0.25000000  0.37132300  1
  P  P11  1  0.09974200  0.75000000  0.12867700  1
  P  P12  1  0.62835600  0.75000000  0.87275800  1
  P  P13  1  0.12835600  0.25000000  0.62724200  1
  P  P14  1  0.37164400  0.25000000  0.12724200  1
  P  P15  1  0.87164400  0.75000000  0.37275800  1
  O  O16  1  0.77270200  0.75000000  0.96242500  1
  O  O17  1  0.27270200  0.25000000  0.53757500  1
  O  O18  1  0.22729800  0.25000000  0.03757500  1
  O  O19  1  0.72729800  0.75000000  0.46242500  1
  O  O20  1  0.79396500  0.75000000  0.78976500  1
  O  O21  1  0.29396500  0.25000000  0.71023500  1
  O  O22  1  0.20603500  0.25000000  0.21023500  1
  O  O23  1  0.70603500  0.75000000  0.28976500  1
  O  O24  1  0.53062600  0.42162700  0.12901100  1
  O  O25  1  0.03062600  0.57837300  0.37098900  1
  O  O26  1  0.46937400  0.92162700  0.87098900  1
  O  O27  1  0.96937400  0.07837300  0.62901100  1
  O  O28  1  0.46937400  0.57837300  0.87098900  1
  O  O29  1  0.96937400  0.42162700  0.62901100  1
  O  O30  1  0.53062600  0.07837300  0.12901100  1
  O  O31  1  0.03062600  0.92162700  0.37098900  1
  O  O32  1  0.27016400  0.75000000  0.20943900  1
  O  O33  1  0.77016400  0.25000000  0.29056100  1
  O  O34  1  0.72983600  0.25000000  0.79056100  1
  O  O35  1  0.22983600  0.75000000  0.70943900  1
  O  O36  1  0.22551500  0.75000000  0.03318700  1
  O  O37  1  0.72551500  0.25000000  0.46681300  1
  O  O38  1  0.77448500  0.25000000  0.96681300  1
  O  O39  1  0.27448500  0.75000000  0.53318700  1
  O  O40  1  0.95002700  0.92718800  0.13392900  1
  O  O41  1  0.45002700  0.07281200  0.36607100  1
  O  O42  1  0.04997300  0.42718800  0.86607100  1
  O  O43  1  0.54997300  0.57281200  0.63392900  1
  O  O44  1  0.04997300  0.07281200  0.86607100  1
  O  O45  1  0.54997300  0.92718800  0.63392900  1
  O  O46  1  0.95002700  0.57281200  0.13392900  1
  O  O47  1  0.45002700  0.42718800  0.36607100  1
