# generated using pymatgen
data_Nd2Pt2O7
_symmetry_space_group_name_H-M   'P 1'
_cell_length_a   7.43892032
_cell_length_b   7.43892032
_cell_length_c   7.43892032
_cell_angle_alpha   60.00000000
_cell_angle_beta   60.00000000
_cell_angle_gamma   60.00000000
_symmetry_Int_Tables_number   1
_chemical_formula_structural   Nd2Pt2O7
_chemical_formula_sum   'Nd4 Pt4 O14'
_cell_volume   291.08157901
_cell_formula_units_Z   2
loop_
 _symmetry_equiv_pos_site_id
 _symmetry_equiv_pos_as_xyz
  1  'x, y, z'
loop_
 _atom_site_type_symbol
 _atom_site_label
 _atom_site_symmetry_multiplicity
 _atom_site_fract_x
 _atom_site_fract_y
 _atom_site_fract_z
 _atom_site_occupancy
  Nd  Nd0  1  0.62500000  0.62500000  0.12500000  1
  Nd  Nd1  1  0.62500000  0.12500000  0.62500000  1
  Nd  Nd2  1  0.12500000  0.62500000  0.62500000  1
  Nd  Nd3  1  0.62500000  0.62500000  0.62500000  1
  Pt  Pt4  1  0.12500000  0.12500000  0.62500000  1
  Pt  Pt5  1  0.12500000  0.62500000  0.12500000  1
  Pt  Pt6  1  0.62500000  0.12500000  0.12500000  1
  Pt  Pt7  1  0.12500000  0.12500000  0.12500000  1
  O  O8  1  0.50000000  0.50000000  0.50000000  1
  O  O9  1  0.75000000  0.75000000  0.75000000  1
  O  O10  1  0.46052600  0.03947400  0.46052600  1
  O  O11  1  0.21052600  0.78947400  0.21052600  1
  O  O12  1  0.46052600  0.46052600  0.03947400  1
  O  O13  1  0.03947400  0.46052600  0.46052600  1
  O  O14  1  0.46052600  0.03947400  0.03947400  1
  O  O15  1  0.03947400  0.03947400  0.46052600  1
  O  O16  1  0.03947400  0.46052600  0.03947400  1
  O  O17  1  0.78947400  0.21052600  0.21052600  1
  O  O18  1  0.21052600  0.78947400  0.78947400  1
  O  O19  1  0.78947400  0.21052600  0.78947400  1
  O  O20  1  0.21052600  0.21052600  0.78947400  1
  O  O21  1  0.78947400  0.78947400  0.21052600  1
