# generated using pymatgen
data_Ca3Tl2O6
_symmetry_space_group_name_H-M   'P 1'
_cell_length_a   3.37542500
_cell_length_b   11.38833100
_cell_length_c   16.75111100
_cell_angle_alpha   90.00000000
_cell_angle_beta   90.00000000
_cell_angle_gamma   90.00000000
_symmetry_Int_Tables_number   1
_chemical_formula_structural   Ca3Tl2O6
_chemical_formula_sum   'Ca12 Tl8 O24'
_cell_volume   643.92036487
_cell_formula_units_Z   4
loop_
 _symmetry_equiv_pos_site_id
 _symmetry_equiv_pos_as_xyz
  1  'x, y, z'
loop_
 _atom_site_type_symbol
 _atom_site_label
 _atom_site_symmetry_multiplicity
 _atom_site_fract_x
 _atom_site_fract_y
 _atom_site_fract_z
 _atom_site_occupancy
  Ca  Ca0  1  0.50000000  0.10417000  0.85466100  1
  Ca  Ca1  1  0.50000000  0.89583000  0.14533900  1
  Ca  Ca2  1  0.50000000  0.60417000  0.64533900  1
  Ca  Ca3  1  0.50000000  0.39583000  0.35466100  1
  Ca  Ca4  1  0.50000000  0.36664500  0.96012400  1
  Ca  Ca5  1  0.50000000  0.63335500  0.03987600  1
  Ca  Ca6  1  0.50000000  0.86664500  0.53987600  1
  Ca  Ca7  1  0.50000000  0.13335500  0.46012400  1
  Ca  Ca8  1  0.50000000  0.32859600  0.72527100  1
  Ca  Ca9  1  0.50000000  0.67140400  0.27472900  1
  Ca  Ca10  1  0.50000000  0.82859600  0.77472900  1
  Ca  Ca11  1  0.50000000  0.17140400  0.22527100  1
  Tl  Tl12  1  0.00000000  0.41520700  0.14893500  1
  Tl  Tl13  1  0.00000000  0.58479300  0.85106500  1
  Tl  Tl14  1  0.00000000  0.91520700  0.35106500  1
  Tl  Tl15  1  0.00000000  0.08479300  0.64893500  1
  Tl  Tl16  1  0.00000000  0.36527300  0.54553100  1
  Tl  Tl17  1  0.00000000  0.63472700  0.45446900  1
  Tl  Tl18  1  0.00000000  0.86527300  0.95446900  1
  Tl  Tl19  1  0.00000000  0.13472700  0.04553100  1
  O  O20  1  0.00000000  0.19197600  0.76180900  1
  O  O21  1  0.00000000  0.80802400  0.23819100  1
  O  O22  1  0.00000000  0.69197600  0.73819100  1
  O  O23  1  0.00000000  0.30802400  0.26180900  1
  O  O24  1  0.50000000  0.45657500  0.83359600  1
  O  O25  1  0.50000000  0.54342500  0.16640400  1
  O  O26  1  0.50000000  0.95657500  0.66640400  1
  O  O27  1  0.50000000  0.04342500  0.33359600  1
  O  O28  1  0.50000000  0.21608300  0.59572600  1
  O  O29  1  0.50000000  0.78391700  0.40427400  1
  O  O30  1  0.50000000  0.71608300  0.90427400  1
  O  O31  1  0.50000000  0.28391700  0.09572600  1
  O  O32  1  0.50000000  0.50000000  0.50000000  1
  O  O33  1  0.50000000  0.00000000  0.00000000  1
  O  O34  1  0.00000000  0.21942100  0.93209400  1
  O  O35  1  0.00000000  0.78057900  0.06790600  1
  O  O36  1  0.00000000  0.71942100  0.56790600  1
  O  O37  1  0.00000000  0.28057900  0.43209400  1
  O  O38  1  0.00000000  0.00000000  0.50000000  1
  O  O39  1  0.00000000  0.50000000  0.00000000  1
  O  O40  1  0.00000000  0.05278600  0.16017100  1
  O  O41  1  0.00000000  0.94721400  0.83982900  1
  O  O42  1  0.00000000  0.55278600  0.33982900  1
  O  O43  1  0.00000000  0.44721400  0.66017100  1
