# generated using pymatgen
data_Cs3BP2
_symmetry_space_group_name_H-M   'P 1'
_cell_length_a   7.00097558
_cell_length_b   7.00097558
_cell_length_c   9.91498589
_cell_angle_alpha   75.98825453
_cell_angle_beta   75.98825453
_cell_angle_gamma   89.18465940
_symmetry_Int_Tables_number   1
_chemical_formula_structural   Cs3BP2
_chemical_formula_sum   'Cs6 B2 P4'
_cell_volume   456.97203359
_cell_formula_units_Z   2
loop_
 _symmetry_equiv_pos_site_id
 _symmetry_equiv_pos_as_xyz
  1  'x, y, z'
loop_
 _atom_site_type_symbol
 _atom_site_label
 _atom_site_symmetry_multiplicity
 _atom_site_fract_x
 _atom_site_fract_y
 _atom_site_fract_z
 _atom_site_occupancy
  Cs  Cs0  1  0.34217800  0.65782200  0.25000000  1
  Cs  Cs1  1  0.65782200  0.34217800  0.75000000  1
  Cs  Cs2  1  0.15295200  0.25644600  0.02134500  1
  Cs  Cs3  1  0.74355400  0.84704800  0.47865500  1
  Cs  Cs4  1  0.84704800  0.74355400  0.97865500  1
  Cs  Cs5  1  0.25644600  0.15295200  0.52134500  1
  B  B6  1  0.71255900  0.28744100  0.25000000  1
  B  B7  1  0.28744100  0.71255900  0.75000000  1
  P  P8  1  0.83355700  0.40269200  0.35034900  1
  P  P9  1  0.59730800  0.16644300  0.14965100  1
  P  P10  1  0.40269200  0.83355700  0.85034900  1
  P  P11  1  0.16644300  0.59730800  0.64965100  1
