# generated using pymatgen
data_Na2ZrO3
_symmetry_space_group_name_H-M   'P 1'
_cell_length_a   5.69582301
_cell_length_b   5.69582301
_cell_length_c   11.24118404
_cell_angle_alpha   85.06210243
_cell_angle_beta   85.06210243
_cell_angle_gamma   120.06209809
_symmetry_Int_Tables_number   1
_chemical_formula_structural   Na2ZrO3
_chemical_formula_sum   'Na8 Zr4 O12'
_cell_volume   310.91263746
_cell_formula_units_Z   4
loop_
 _symmetry_equiv_pos_site_id
 _symmetry_equiv_pos_as_xyz
  1  'x, y, z'
loop_
 _atom_site_type_symbol
 _atom_site_label
 _atom_site_symmetry_multiplicity
 _atom_site_fract_x
 _atom_site_fract_y
 _atom_site_fract_z
 _atom_site_occupancy
  Na  Na0  1  0.08443800  0.91556200  0.75000000  1
  Na  Na1  1  0.91556200  0.08443800  0.25000000  1
  Na  Na2  1  0.00000000  0.50000000  0.00000000  1
  Na  Na3  1  0.50000000  0.00000000  0.50000000  1
  Na  Na4  1  0.15990400  0.31903400  0.50013100  1
  Na  Na5  1  0.68096600  0.84009600  0.99986900  1
  Na  Na6  1  0.84009600  0.68096600  0.49986900  1
  Na  Na7  1  0.31903400  0.15990400  0.00013100  1
  Zr  Zr8  1  0.41769500  0.58230500  0.75000000  1
  Zr  Zr9  1  0.58230500  0.41769500  0.25000000  1
  Zr  Zr10  1  0.24985000  0.75015000  0.25000000  1
  Zr  Zr11  1  0.75015000  0.24985000  0.75000000  1
  O  O12  1  0.32162800  0.49047800  0.14437900  1
  O  O13  1  0.50952200  0.67837200  0.35562100  1
  O  O14  1  0.67837200  0.50952200  0.85562100  1
  O  O15  1  0.49047800  0.32162800  0.64437900  1
  O  O16  1  0.12016400  0.57978900  0.64462700  1
  O  O17  1  0.42021100  0.87983600  0.85537300  1
  O  O18  1  0.87983600  0.42021100  0.35537300  1
  O  O19  1  0.57978900  0.12016400  0.14462700  1
  O  O20  1  0.04805700  0.24910700  0.85739400  1
  O  O21  1  0.75089300  0.95194300  0.64260600  1
  O  O22  1  0.95194300  0.75089300  0.14260600  1
  O  O23  1  0.24910700  0.04805700  0.35739400  1
