# generated using pymatgen
data_RbAsF6
_symmetry_space_group_name_H-M   'P 1'
_cell_length_a   5.15481440
_cell_length_b   5.15481440
_cell_length_c   5.15481392
_cell_angle_alpha   97.21006972
_cell_angle_beta   97.21006972
_cell_angle_gamma   97.21007350
_symmetry_Int_Tables_number   1
_chemical_formula_structural   RbAsF6
_chemical_formula_sum   'Rb1 As1 F6'
_cell_volume   133.42093778
_cell_formula_units_Z   1
loop_
 _symmetry_equiv_pos_site_id
 _symmetry_equiv_pos_as_xyz
  1  'x, y, z'
loop_
 _atom_site_type_symbol
 _atom_site_label
 _atom_site_symmetry_multiplicity
 _atom_site_fract_x
 _atom_site_fract_y
 _atom_site_fract_z
 _atom_site_occupancy
  Rb  Rb0  1  0.50000000  0.50000000  0.50000000  1
  As  As1  1  0.00000000  0.00000000  0.00000000  1
  F  F2  1  0.26901200  0.21216000  0.92157300  1
  F  F3  1  0.92157300  0.26901200  0.21216000  1
  F  F4  1  0.78784000  0.07842700  0.73098800  1
  F  F5  1  0.07842700  0.73098800  0.78784000  1
  F  F6  1  0.73098800  0.78784000  0.07842700  1
  F  F7  1  0.21216000  0.92157300  0.26901200  1
