# generated using pymatgen
data_Si4MoPt3
_symmetry_space_group_name_H-M   'P 1'
_cell_length_a   3.52081900
_cell_length_b   5.56264700
_cell_length_c   24.57711500
_cell_angle_alpha   90.00000000
_cell_angle_beta   90.00000000
_cell_angle_gamma   90.00000000
_symmetry_Int_Tables_number   1
_chemical_formula_structural   Si4MoPt3
_chemical_formula_sum   'Si16 Mo4 Pt12'
_cell_volume   481.34459750
_cell_formula_units_Z   4
loop_
 _symmetry_equiv_pos_site_id
 _symmetry_equiv_pos_as_xyz
  1  'x, y, z'
loop_
 _atom_site_type_symbol
 _atom_site_label
 _atom_site_symmetry_multiplicity
 _atom_site_fract_x
 _atom_site_fract_y
 _atom_site_fract_z
 _atom_site_occupancy
  Si  Si0  1  0.25000000  0.17883000  0.51960000  1
  Si  Si1  1  0.75000000  0.32117000  0.01960000  1
  Si  Si2  1  0.25000000  0.67883000  0.98040000  1
  Si  Si3  1  0.75000000  0.82117000  0.48040000  1
  Si  Si4  1  0.75000000  0.32007000  0.64581400  1
  Si  Si5  1  0.25000000  0.17993000  0.14581400  1
  Si  Si6  1  0.75000000  0.82007000  0.85418600  1
  Si  Si7  1  0.25000000  0.67993000  0.35418600  1
  Si  Si8  1  0.25000000  0.66011300  0.60977400  1
  Si  Si9  1  0.75000000  0.83988700  0.10977400  1
  Si  Si10  1  0.25000000  0.16011300  0.89022600  1
  Si  Si11  1  0.75000000  0.33988700  0.39022600  1
  Si  Si12  1  0.75000000  0.83086100  0.72619500  1
  Si  Si13  1  0.25000000  0.66913900  0.22619500  1
  Si  Si14  1  0.75000000  0.33086100  0.77380500  1
  Si  Si15  1  0.25000000  0.16913900  0.27380500  1
  Mo  Mo16  1  0.25000000  0.50442800  0.71001100  1
  Mo  Mo17  1  0.75000000  0.99557200  0.21001100  1
  Mo  Mo18  1  0.25000000  0.00442800  0.78998900  1
  Mo  Mo19  1  0.75000000  0.49557200  0.28998900  1
  Pt  Pt20  1  0.75000000  0.00087300  0.57468100  1
  Pt  Pt21  1  0.25000000  0.49912700  0.07468100  1
  Pt  Pt22  1  0.75000000  0.50087300  0.92531900  1
  Pt  Pt23  1  0.25000000  0.99912700  0.42531900  1
  Pt  Pt24  1  0.25000000  0.00346100  0.67012600  1
  Pt  Pt25  1  0.75000000  0.49653900  0.17012600  1
  Pt  Pt26  1  0.25000000  0.50346100  0.82987400  1
  Pt  Pt27  1  0.75000000  0.99653900  0.32987400  1
  Pt  Pt28  1  0.75000000  0.50156500  0.54817900  1
  Pt  Pt29  1  0.25000000  0.99843500  0.04817900  1
  Pt  Pt30  1  0.75000000  0.00156500  0.95182100  1
  Pt  Pt31  1  0.25000000  0.49843500  0.45182100  1
