# generated using pymatgen
data_OsO2
_symmetry_space_group_name_H-M   'P 1'
_cell_length_a   4.51649100
_cell_length_b   4.51649100
_cell_length_c   3.22237200
_cell_angle_alpha   90.00000000
_cell_angle_beta   90.00000000
_cell_angle_gamma   90.00000000
_symmetry_Int_Tables_number   1
_chemical_formula_structural   OsO2
_chemical_formula_sum   'Os2 O4'
_cell_volume   65.73217056
_cell_formula_units_Z   2
loop_
 _symmetry_equiv_pos_site_id
 _symmetry_equiv_pos_as_xyz
  1  'x, y, z'
loop_
 _atom_site_type_symbol
 _atom_site_label
 _atom_site_symmetry_multiplicity
 _atom_site_fract_x
 _atom_site_fract_y
 _atom_site_fract_z
 _atom_site_occupancy
  Os  Os0  1  0.50000000  0.50000000  0.50000000  1
  Os  Os1  1  0.00000000  0.00000000  0.00000000  1
  O  O2  1  0.80841000  0.19159000  0.50000000  1
  O  O3  1  0.19159000  0.80841000  0.50000000  1
  O  O4  1  0.30841000  0.30841000  0.00000000  1
  O  O5  1  0.69159000  0.69159000  0.00000000  1
