# generated using pymatgen
data_Li5Mg
_symmetry_space_group_name_H-M   'P 1'
_cell_length_a   5.85294313
_cell_length_b   5.85294313
_cell_length_c   5.85294381
_cell_angle_alpha   53.53995579
_cell_angle_beta   53.53995579
_cell_angle_gamma   53.53995986
_symmetry_Int_Tables_number   1
_chemical_formula_structural   Li5Mg
_chemical_formula_sum   'Li5 Mg1'
_cell_volume   120.34949307
_cell_formula_units_Z   1
loop_
 _symmetry_equiv_pos_site_id
 _symmetry_equiv_pos_as_xyz
  1  'x, y, z'
loop_
 _atom_site_type_symbol
 _atom_site_label
 _atom_site_symmetry_multiplicity
 _atom_site_fract_x
 _atom_site_fract_y
 _atom_site_fract_z
 _atom_site_occupancy
  Li  Li0  1  0.16741300  0.83258700  0.50000000  1
  Li  Li1  1  0.50000000  0.16741300  0.83258700  1
  Li  Li2  1  0.83258700  0.50000000  0.16741300  1
  Li  Li3  1  0.33325300  0.33325300  0.33325300  1
  Li  Li4  1  0.66674700  0.66674700  0.66674700  1
  Mg  Mg5  1  0.00000000  0.00000000  0.00000000  1
