# generated using pymatgen
data_BaSb2Pd
_symmetry_space_group_name_H-M   'P 1'
_cell_length_a   9.71972578
_cell_length_b   9.71972578
_cell_length_c   4.98560900
_cell_angle_alpha   90.00000000
_cell_angle_beta   90.00000000
_cell_angle_gamma   150.44825833
_symmetry_Int_Tables_number   1
_chemical_formula_structural   BaSb2Pd
_chemical_formula_sum   'Ba2 Sb4 Pd2'
_cell_volume   232.30445433
_cell_formula_units_Z   2
loop_
 _symmetry_equiv_pos_site_id
 _symmetry_equiv_pos_as_xyz
  1  'x, y, z'
loop_
 _atom_site_type_symbol
 _atom_site_label
 _atom_site_symmetry_multiplicity
 _atom_site_fract_x
 _atom_site_fract_y
 _atom_site_fract_z
 _atom_site_occupancy
  Ba  Ba0  1  0.39340000  0.60660000  0.75000000  1
  Ba  Ba1  1  0.60660000  0.39340000  0.25000000  1
  Sb  Sb2  1  0.04247200  0.95752800  0.75000000  1
  Sb  Sb3  1  0.95752800  0.04247200  0.25000000  1
  Sb  Sb4  1  0.24969900  0.75030100  0.25000000  1
  Sb  Sb5  1  0.75030100  0.24969900  0.75000000  1
  Pd  Pd6  1  0.81386400  0.18613600  0.25000000  1
  Pd  Pd7  1  0.18613600  0.81386400  0.75000000  1
