# generated using pymatgen
data_K2Dy4Cu4Se9
_symmetry_space_group_name_H-M   'P 1'
_cell_length_a   7.45518570
_cell_length_b   7.45518570
_cell_length_c   16.51981366
_cell_angle_alpha   71.41021735
_cell_angle_beta   71.41021735
_cell_angle_gamma   32.04020648
_symmetry_Int_Tables_number   1
_chemical_formula_structural   K2Dy4Cu4Se9
_chemical_formula_sum   'K2 Dy4 Cu4 Se9'
_cell_volume   459.52885311
_cell_formula_units_Z   1
loop_
 _symmetry_equiv_pos_site_id
 _symmetry_equiv_pos_as_xyz
  1  'x, y, z'
loop_
 _atom_site_type_symbol
 _atom_site_label
 _atom_site_symmetry_multiplicity
 _atom_site_fract_x
 _atom_site_fract_y
 _atom_site_fract_z
 _atom_site_occupancy
  K  K0  1  0.03271300  0.03271300  0.73059300  1
  K  K1  1  0.96728700  0.96728700  0.26940700  1
  Dy  Dy2  1  0.23181600  0.23181600  0.89684600  1
  Dy  Dy3  1  0.34496500  0.34496500  0.55626300  1
  Dy  Dy4  1  0.65503500  0.65503500  0.44373700  1
  Dy  Dy5  1  0.76818400  0.76818400  0.10315400  1
  Cu  Cu6  1  0.42436500  0.42436500  0.97134300  1
  Cu  Cu7  1  0.75979500  0.75979500  0.72864200  1
  Cu  Cu8  1  0.24020500  0.24020500  0.27135800  1
  Cu  Cu9  1  0.57563500  0.57563500  0.02865700  1
  Se  Se10  1  0.86481800  0.86481800  0.92203100  1
  Se  Se11  1  0.60706600  0.60706600  0.87029300  1
  Se  Se12  1  0.35566200  0.35566200  0.72287000  1
  Se  Se13  1  0.69857600  0.69857600  0.60430500  1
  Se  Se14  1  0.00000000  0.00000000  0.50000000  1
  Se  Se15  1  0.30142400  0.30142400  0.39569500  1
  Se  Se16  1  0.64433800  0.64433800  0.27713000  1
  Se  Se17  1  0.39293400  0.39293400  0.12970700  1
  Se  Se18  1  0.13518200  0.13518200  0.07796900  1
