# generated using pymatgen
data_MnMoN2
_symmetry_space_group_name_H-M   'P 1'
_cell_length_a   2.86448854
_cell_length_b   2.86448854
_cell_length_c   10.68461700
_cell_angle_alpha   90.00000000
_cell_angle_beta   90.00000000
_cell_angle_gamma   120.00001246
_symmetry_Int_Tables_number   1
_chemical_formula_structural   MnMoN2
_chemical_formula_sum   'Mn2 Mo2 N4'
_cell_volume   75.92481010
_cell_formula_units_Z   2
loop_
 _symmetry_equiv_pos_site_id
 _symmetry_equiv_pos_as_xyz
  1  'x, y, z'
loop_
 _atom_site_type_symbol
 _atom_site_label
 _atom_site_symmetry_multiplicity
 _atom_site_fract_x
 _atom_site_fract_y
 _atom_site_fract_z
 _atom_site_occupancy
  Mn  Mn0  1  0.00000000  0.00000000  0.50000000  1
  Mn  Mn1  1  0.00000000  0.00000000  0.00000000  1
  Mo  Mo2  1  0.00000000  0.00000000  0.25000000  1
  Mo  Mo3  1  0.00000000  0.00000000  0.75000000  1
  N  N4  1  0.33333300  0.66666700  0.37858800  1
  N  N5  1  0.66666700  0.33333300  0.87858800  1
  N  N6  1  0.33333300  0.66666700  0.12141200  1
  N  N7  1  0.66666700  0.33333300  0.62141200  1
