# generated using pymatgen
data_Fe5B2P
_symmetry_space_group_name_H-M   'P 1'
_cell_length_a   6.43753051
_cell_length_b   6.43753051
_cell_length_c   6.43753051
_cell_angle_alpha   129.89896605
_cell_angle_beta   129.89896605
_cell_angle_gamma   73.56833572
_symmetry_Int_Tables_number   1
_chemical_formula_structural   Fe5B2P
_chemical_formula_sum   'Fe10 B4 P2'
_cell_volume   153.22563570
_cell_formula_units_Z   2
loop_
 _symmetry_equiv_pos_site_id
 _symmetry_equiv_pos_as_xyz
  1  'x, y, z'
loop_
 _atom_site_type_symbol
 _atom_site_label
 _atom_site_symmetry_multiplicity
 _atom_site_fract_x
 _atom_site_fract_y
 _atom_site_fract_z
 _atom_site_occupancy
  Fe  Fe0  1  0.50000000  0.50000000  0.00000000  1
  Fe  Fe1  1  0.30994200  0.46728900  0.50000000  1
  Fe  Fe2  1  0.80994200  0.30994200  0.84265300  1
  Fe  Fe3  1  0.69005800  0.53271100  0.50000000  1
  Fe  Fe4  1  0.03271100  0.19005800  0.50000000  1
  Fe  Fe5  1  0.53271100  0.03271100  0.84265300  1
  Fe  Fe6  1  0.19005800  0.69005800  0.15734700  1
  Fe  Fe7  1  0.46728900  0.96728900  0.15734700  1
  Fe  Fe8  1  0.00000000  0.00000000  0.00000000  1
  Fe  Fe9  1  0.96728900  0.80994200  0.50000000  1
  B  B10  1  0.88146200  0.38146200  0.26292400  1
  B  B11  1  0.38146200  0.11853800  0.50000000  1
  B  B12  1  0.11853800  0.61853800  0.73707600  1
  B  B13  1  0.61853800  0.88146200  0.50000000  1
  P  P14  1  0.25000000  0.25000000  0.00000000  1
  P  P15  1  0.75000000  0.75000000  0.00000000  1
