# generated using pymatgen
data_CsAu3S2
_symmetry_space_group_name_H-M   'P 1'
_cell_length_a   6.42245596
_cell_length_b   6.42245596
_cell_length_c   5.62487800
_cell_angle_alpha   90.00000000
_cell_angle_beta   90.00000000
_cell_angle_gamma   119.99999955
_symmetry_Int_Tables_number   1
_chemical_formula_structural   CsAu3S2
_chemical_formula_sum   'Cs1 Au3 S2'
_cell_volume   200.93056724
_cell_formula_units_Z   1
loop_
 _symmetry_equiv_pos_site_id
 _symmetry_equiv_pos_as_xyz
  1  'x, y, z'
loop_
 _atom_site_type_symbol
 _atom_site_label
 _atom_site_symmetry_multiplicity
 _atom_site_fract_x
 _atom_site_fract_y
 _atom_site_fract_z
 _atom_site_occupancy
  Cs  Cs0  1  0.00000000  0.00000000  0.50000000  1
  Au  Au1  1  0.00000000  0.50000000  0.00000000  1
  Au  Au2  1  0.50000000  0.00000000  0.00000000  1
  Au  Au3  1  0.50000000  0.50000000  0.00000000  1
  S  S4  1  0.33333300  0.66666700  0.74463200  1
  S  S5  1  0.66666700  0.33333300  0.25536800  1
