# generated using pymatgen
data_LiMgPO4
_symmetry_space_group_name_H-M   'P 1'
_cell_length_a   4.73930200
_cell_length_b   5.97221000
_cell_length_c   10.25467500
_cell_angle_alpha   90.00000000
_cell_angle_beta   90.00000000
_cell_angle_gamma   90.00000000
_symmetry_Int_Tables_number   1
_chemical_formula_structural   LiMgPO4
_chemical_formula_sum   'Li4 Mg4 P4 O16'
_cell_volume   290.24941637
_cell_formula_units_Z   4
loop_
 _symmetry_equiv_pos_site_id
 _symmetry_equiv_pos_as_xyz
  1  'x, y, z'
loop_
 _atom_site_type_symbol
 _atom_site_label
 _atom_site_symmetry_multiplicity
 _atom_site_fract_x
 _atom_site_fract_y
 _atom_site_fract_z
 _atom_site_occupancy
  Li  Li0  1  0.00000000  0.00000000  0.00000000  1
  Li  Li1  1  0.50000000  0.00000000  0.50000000  1
  Li  Li2  1  0.00000000  0.50000000  0.00000000  1
  Li  Li3  1  0.50000000  0.50000000  0.50000000  1
  Mg  Mg4  1  0.01737000  0.75000000  0.27810700  1
  Mg  Mg5  1  0.98263000  0.25000000  0.72189300  1
  Mg  Mg6  1  0.48263000  0.75000000  0.77810700  1
  Mg  Mg7  1  0.51737000  0.25000000  0.22189300  1
  P  P8  1  0.08237700  0.25000000  0.40494700  1
  P  P9  1  0.41762300  0.25000000  0.90494700  1
  P  P10  1  0.91762300  0.75000000  0.59505300  1
  P  P11  1  0.58237700  0.75000000  0.09505300  1
  O  O12  1  0.78036500  0.54426600  0.66624000  1
  O  O13  1  0.21963500  0.45573400  0.33376000  1
  O  O14  1  0.71963500  0.54426600  0.16624000  1
  O  O15  1  0.78036500  0.95573400  0.66624000  1
  O  O16  1  0.28036500  0.04426600  0.83376000  1
  O  O17  1  0.74176800  0.25000000  0.89840000  1
  O  O18  1  0.28036500  0.45573400  0.83376000  1
  O  O19  1  0.21963500  0.04426600  0.33376000  1
  O  O20  1  0.25823200  0.75000000  0.10160000  1
  O  O21  1  0.75823200  0.25000000  0.39840000  1
  O  O22  1  0.80148000  0.75000000  0.45343500  1
  O  O23  1  0.24176800  0.75000000  0.60160000  1
  O  O24  1  0.69852000  0.75000000  0.95343500  1
  O  O25  1  0.30148000  0.25000000  0.04656500  1
  O  O26  1  0.19852000  0.25000000  0.54656500  1
  O  O27  1  0.71963500  0.95573400  0.16624000  1
