# generated using pymatgen
data_KH8N3
_symmetry_space_group_name_H-M   'P 1'
_cell_length_a   5.98727934
_cell_length_b   5.98727934
_cell_length_c   6.59160100
_cell_angle_alpha   90.00000000
_cell_angle_beta   90.00000000
_cell_angle_gamma   109.49157371
_symmetry_Int_Tables_number   1
_chemical_formula_structural   KH8N3
_chemical_formula_sum   'K2 H16 N6'
_cell_volume   222.75071995
_cell_formula_units_Z   2
loop_
 _symmetry_equiv_pos_site_id
 _symmetry_equiv_pos_as_xyz
  1  'x, y, z'
loop_
 _atom_site_type_symbol
 _atom_site_label
 _atom_site_symmetry_multiplicity
 _atom_site_fract_x
 _atom_site_fract_y
 _atom_site_fract_z
 _atom_site_occupancy
  K  K0  1  0.06352100  0.93647900  0.75000000  1
  K  K1  1  0.93647900  0.06352100  0.25000000  1
  H  H2  1  0.48112200  0.78796200  0.52346800  1
  H  H3  1  0.50501900  0.07237700  0.55277600  1
  H  H4  1  0.41919200  0.41082700  0.62156600  1
  H  H5  1  0.59286700  0.92196700  0.73357800  1
  H  H6  1  0.07803300  0.40713300  0.76642200  1
  H  H7  1  0.58917300  0.58080800  0.87843400  1
  H  H8  1  0.92762300  0.49498100  0.94722400  1
  H  H9  1  0.21203800  0.51887800  0.97653200  1
  H  H10  1  0.51887800  0.21203800  0.02346800  1
  H  H11  1  0.49498100  0.92762300  0.05277600  1
  H  H12  1  0.58080800  0.58917300  0.12156600  1
  H  H13  1  0.40713300  0.07803300  0.23357800  1
  H  H14  1  0.92196700  0.59286700  0.26642200  1
  H  H15  1  0.41082700  0.41919200  0.37843400  1
  H  H16  1  0.07237700  0.50501900  0.44722400  1
  H  H17  1  0.78796200  0.48112200  0.47653200  1
  N  N18  1  0.32115700  0.32115700  0.50000000  1
  N  N19  1  0.58863100  0.94765800  0.58045900  1
  N  N20  1  0.05234200  0.41136900  0.91954100  1
  N  N21  1  0.67884300  0.67884300  0.00000000  1
  N  N22  1  0.41136900  0.05234200  0.08045900  1
  N  N23  1  0.94765800  0.58863100  0.41954100  1
