# generated using pymatgen
data_K4BeP2
_symmetry_space_group_name_H-M   'P 1'
_cell_length_a   9.02812087
_cell_length_b   9.02812087
_cell_length_c   9.02812104
_cell_angle_alpha   36.12948772
_cell_angle_beta   36.12948772
_cell_angle_gamma   36.12949570
_symmetry_Int_Tables_number   1
_chemical_formula_structural   K4BeP2
_chemical_formula_sum   'K4 Be1 P2'
_cell_volume   228.85935047
_cell_formula_units_Z   1
loop_
 _symmetry_equiv_pos_site_id
 _symmetry_equiv_pos_as_xyz
  1  'x, y, z'
loop_
 _atom_site_type_symbol
 _atom_site_label
 _atom_site_symmetry_multiplicity
 _atom_site_fract_x
 _atom_site_fract_y
 _atom_site_fract_z
 _atom_site_occupancy
  K  K0  1  0.62312400  0.62312400  0.62312400  1
  K  K1  1  0.37687600  0.37687600  0.37687600  1
  K  K2  1  0.79140100  0.79140100  0.79140100  1
  K  K3  1  0.20859900  0.20859900  0.20859900  1
  Be  Be4  1  0.00000000  0.00000000  0.00000000  1
  P  P5  1  0.92109000  0.92109000  0.92109000  1
  P  P6  1  0.07891000  0.07891000  0.07891000  1
