# generated using pymatgen
data_LaCrN3
_symmetry_space_group_name_H-M   'P 1'
_cell_length_a   7.22685955
_cell_length_b   7.22685955
_cell_length_c   6.01210995
_cell_angle_alpha   78.20532871
_cell_angle_beta   78.20532871
_cell_angle_gamma   89.75799727
_symmetry_Int_Tables_number   1
_chemical_formula_structural   LaCrN3
_chemical_formula_sum   'La4 Cr4 N12'
_cell_volume   300.64700518
_cell_formula_units_Z   4
loop_
 _symmetry_equiv_pos_site_id
 _symmetry_equiv_pos_as_xyz
  1  'x, y, z'
loop_
 _atom_site_type_symbol
 _atom_site_label
 _atom_site_symmetry_multiplicity
 _atom_site_fract_x
 _atom_site_fract_y
 _atom_site_fract_z
 _atom_site_occupancy
  La  La0  1  0.33445400  0.66554600  0.75000000  1
  La  La1  1  0.66554600  0.33445400  0.25000000  1
  La  La2  1  0.09671400  0.90328600  0.25000000  1
  La  La3  1  0.90328600  0.09671400  0.75000000  1
  Cr  Cr4  1  0.37311500  0.20006800  0.75683500  1
  Cr  Cr5  1  0.62688500  0.79993200  0.24316500  1
  Cr  Cr6  1  0.79993200  0.62688500  0.74316500  1
  Cr  Cr7  1  0.20006800  0.37311500  0.25683500  1
  N  N8  1  0.99831700  0.76993500  0.66069300  1
  N  N9  1  0.85577900  0.40784700  0.84309400  1
  N  N10  1  0.76993500  0.99831700  0.16069300  1
  N  N11  1  0.14422100  0.59215300  0.15690600  1
  N  N12  1  0.00168300  0.23006500  0.33930700  1
  N  N13  1  0.23006500  0.00168300  0.83930700  1
  N  N14  1  0.59215300  0.14422100  0.65690600  1
  N  N15  1  0.64006300  0.68242800  0.99107800  1
  N  N16  1  0.35993700  0.31757200  0.00892200  1
  N  N17  1  0.40784700  0.85577900  0.34309400  1
  N  N18  1  0.68242800  0.64006300  0.49107800  1
  N  N19  1  0.31757200  0.35993700  0.50892200  1
