# generated using pymatgen
data_Al2Te5
_symmetry_space_group_name_H-M   'P 1'
_cell_length_a   7.79765567
_cell_length_b   7.79765567
_cell_length_c   10.55346597
_cell_angle_alpha   52.56034998
_cell_angle_beta   52.56034998
_cell_angle_gamma   31.19677816
_symmetry_Int_Tables_number   1
_chemical_formula_structural   Al2Te5
_chemical_formula_sum   'Al2 Te5'
_cell_volume   257.80859229
_cell_formula_units_Z   1
loop_
 _symmetry_equiv_pos_site_id
 _symmetry_equiv_pos_as_xyz
  1  'x, y, z'
loop_
 _atom_site_type_symbol
 _atom_site_label
 _atom_site_symmetry_multiplicity
 _atom_site_fract_x
 _atom_site_fract_y
 _atom_site_fract_z
 _atom_site_occupancy
  Al  Al0  1  0.63388000  0.63388000  0.59912900  1
  Al  Al1  1  0.36612000  0.36612000  0.40087100  1
  Te  Te2  1  0.42638000  0.42638000  0.87429000  1
  Te  Te3  1  0.57362000  0.57362000  0.12571000  1
  Te  Te4  1  0.00000000  0.00000000  0.00000000  1
  Te  Te5  1  0.81233800  0.81233800  0.60045500  1
  Te  Te6  1  0.18766200  0.18766200  0.39954500  1
