# generated using pymatgen
data_Eu(GaSb)2
_symmetry_space_group_name_H-M   'P 1'
_cell_length_a   4.40044800
_cell_length_b   6.69880700
_cell_length_c   18.28948300
_cell_angle_alpha   90.00000000
_cell_angle_beta   90.00000000
_cell_angle_gamma   90.00000000
_symmetry_Int_Tables_number   1
_chemical_formula_structural   Eu(GaSb)2
_chemical_formula_sum   'Eu4 Ga8 Sb8'
_cell_volume   539.13284162
_cell_formula_units_Z   4
loop_
 _symmetry_equiv_pos_site_id
 _symmetry_equiv_pos_as_xyz
  1  'x, y, z'
loop_
 _atom_site_type_symbol
 _atom_site_label
 _atom_site_symmetry_multiplicity
 _atom_site_fract_x
 _atom_site_fract_y
 _atom_site_fract_z
 _atom_site_occupancy
  Eu  Eu0  1  0.75000000  0.72487400  0.38387800  1
  Eu  Eu1  1  0.75000000  0.77512600  0.88387800  1
  Eu  Eu2  1  0.25000000  0.27512600  0.61612200  1
  Eu  Eu3  1  0.25000000  0.22487400  0.11612200  1
  Ga  Ga4  1  0.75000000  0.53246300  0.20813000  1
  Ga  Ga5  1  0.75000000  0.96753700  0.70813000  1
  Ga  Ga6  1  0.25000000  0.46753700  0.79187000  1
  Ga  Ga7  1  0.25000000  0.03246300  0.29187000  1
  Ga  Ga8  1  0.75000000  0.94322200  0.56926200  1
  Ga  Ga9  1  0.75000000  0.55677800  0.06926200  1
  Ga  Ga10  1  0.25000000  0.05677800  0.43073800  1
  Ga  Ga11  1  0.25000000  0.44322200  0.93073800  1
  Sb  Sb12  1  0.75000000  0.93907400  0.21141500  1
  Sb  Sb13  1  0.75000000  0.56092600  0.71141500  1
  Sb  Sb14  1  0.25000000  0.06092600  0.78858500  1
  Sb  Sb15  1  0.25000000  0.43907400  0.28858500  1
  Sb  Sb16  1  0.75000000  0.27230800  0.46953500  1
  Sb  Sb17  1  0.75000000  0.22769200  0.96953500  1
  Sb  Sb18  1  0.25000000  0.72769200  0.53046500  1
  Sb  Sb19  1  0.25000000  0.77230800  0.03046500  1
