# generated using pymatgen
data_Ba(LuS2)2
_symmetry_space_group_name_H-M   'P 1'
_cell_length_a   3.99184200
_cell_length_b   12.22928400
_cell_length_c   14.38096900
_cell_angle_alpha   90.00000000
_cell_angle_beta   90.00000000
_cell_angle_gamma   90.00000000
_symmetry_Int_Tables_number   1
_chemical_formula_structural   Ba(LuS2)2
_chemical_formula_sum   'Ba4 Lu8 S16'
_cell_volume   702.04107746
_cell_formula_units_Z   4
loop_
 _symmetry_equiv_pos_site_id
 _symmetry_equiv_pos_as_xyz
  1  'x, y, z'
loop_
 _atom_site_type_symbol
 _atom_site_label
 _atom_site_symmetry_multiplicity
 _atom_site_fract_x
 _atom_site_fract_y
 _atom_site_fract_z
 _atom_site_occupancy
  Ba  Ba0  1  0.25000000  0.75856200  0.66293200  1
  Ba  Ba1  1  0.75000000  0.74143800  0.16293200  1
  Ba  Ba2  1  0.25000000  0.25856200  0.83706800  1
  Ba  Ba3  1  0.75000000  0.24143800  0.33706800  1
  Lu  Lu4  1  0.25000000  0.43445700  0.60830900  1
  Lu  Lu5  1  0.75000000  0.06554300  0.10830900  1
  Lu  Lu6  1  0.25000000  0.93445700  0.89169100  1
  Lu  Lu7  1  0.75000000  0.56554300  0.39169100  1
  Lu  Lu8  1  0.25000000  0.42175500  0.10093500  1
  Lu  Lu9  1  0.75000000  0.07824500  0.60093500  1
  Lu  Lu10  1  0.25000000  0.92175500  0.39906500  1
  Lu  Lu11  1  0.75000000  0.57824500  0.89906500  1
  S  S12  1  0.25000000  0.52361000  0.78312700  1
  S  S13  1  0.75000000  0.97639000  0.28312700  1
  S  S14  1  0.25000000  0.02361000  0.71687300  1
  S  S15  1  0.75000000  0.47639000  0.21687300  1
  S  S16  1  0.25000000  0.12175500  0.47754900  1
  S  S17  1  0.75000000  0.37824500  0.97754900  1
  S  S18  1  0.25000000  0.62175500  0.02245100  1
  S  S19  1  0.75000000  0.87824500  0.52245100  1
  S  S20  1  0.25000000  0.20706500  0.15806600  1
  S  S21  1  0.75000000  0.29293500  0.65806600  1
  S  S22  1  0.25000000  0.70706500  0.34193400  1
  S  S23  1  0.75000000  0.79293500  0.84193400  1
  S  S24  1  0.25000000  0.41976300  0.42365900  1
  S  S25  1  0.75000000  0.08023700  0.92365900  1
  S  S26  1  0.25000000  0.91976300  0.07634100  1
  S  S27  1  0.75000000  0.58023700  0.57634100  1
