# generated using pymatgen
data_B4PbO7
_symmetry_space_group_name_H-M   'P 1'
_cell_length_a   4.29169000
_cell_length_b   4.50342700
_cell_length_c   10.97302100
_cell_angle_alpha   90.00000000
_cell_angle_beta   90.00000000
_cell_angle_gamma   90.00000000
_symmetry_Int_Tables_number   1
_chemical_formula_structural   B4PbO7
_chemical_formula_sum   'B8 Pb2 O14'
_cell_volume   212.07900727
_cell_formula_units_Z   2
loop_
 _symmetry_equiv_pos_site_id
 _symmetry_equiv_pos_as_xyz
  1  'x, y, z'
loop_
 _atom_site_type_symbol
 _atom_site_label
 _atom_site_symmetry_multiplicity
 _atom_site_fract_x
 _atom_site_fract_y
 _atom_site_fract_z
 _atom_site_occupancy
  B  B0  1  0.99601300  0.17604500  0.24846900  1
  B  B1  1  0.49601300  0.82395500  0.25153100  1
  B  B2  1  0.02410300  0.67418800  0.37786300  1
  B  B3  1  0.52410300  0.32581200  0.12213700  1
  B  B4  1  0.52410300  0.32581200  0.87786300  1
  B  B5  1  0.02410300  0.67418800  0.62213700  1
  B  B6  1  0.49601300  0.82395500  0.74846900  1
  B  B7  1  0.99601300  0.17604500  0.75153100  1
  Pb  Pb8  1  0.53439600  0.19494000  0.50000000  1
  Pb  Pb9  1  0.03439600  0.80506000  0.00000000  1
  O  O10  1  0.45292700  0.63838800  0.14526100  1
  O  O11  1  0.35440300  0.73344500  0.36308200  1
  O  O12  1  0.85440300  0.26655500  0.13691800  1
  O  O13  1  0.85440300  0.26655500  0.86308200  1
  O  O14  1  0.84967600  0.87329000  0.71829600  1
  O  O15  1  0.34967600  0.12671000  0.78170400  1
  O  O16  1  0.34967600  0.12671000  0.21829600  1
  O  O17  1  0.84967600  0.87329000  0.28170400  1
  O  O18  1  0.95292700  0.36161200  0.64526100  1
  O  O19  1  0.45292700  0.63838800  0.85473900  1
  O  O20  1  0.91716000  0.76071500  0.50000000  1
  O  O21  1  0.41716000  0.23928500  0.00000000  1
  O  O22  1  0.35440300  0.73344500  0.63691800  1
  O  O23  1  0.95292700  0.36161200  0.35473900  1
