# generated using pymatgen
data_BiS2
_symmetry_space_group_name_H-M   'P 1'
_cell_length_a   8.24061529
_cell_length_b   8.24061529
_cell_length_c   11.62724587
_cell_angle_alpha   53.99405563
_cell_angle_beta   53.99405563
_cell_angle_gamma   28.68302667
_symmetry_Int_Tables_number   1
_chemical_formula_structural   BiS2
_chemical_formula_sum   'Bi4 S8'
_cell_volume   301.23199048
_cell_formula_units_Z   4
loop_
 _symmetry_equiv_pos_site_id
 _symmetry_equiv_pos_as_xyz
  1  'x, y, z'
loop_
 _atom_site_type_symbol
 _atom_site_label
 _atom_site_symmetry_multiplicity
 _atom_site_fract_x
 _atom_site_fract_y
 _atom_site_fract_z
 _atom_site_occupancy
  Bi  Bi0  1  0.70252800  0.70252800  0.89826100  1
  Bi  Bi1  1  0.29747200  0.29747200  0.10173900  1
  Bi  Bi2  1  0.39269700  0.39269700  0.38780300  1
  Bi  Bi3  1  0.60730300  0.60730300  0.61219700  1
  S  S4  1  0.03626500  0.03626500  0.04962500  1
  S  S5  1  0.96373500  0.96373500  0.95037500  1
  S  S6  1  0.92353600  0.92353600  0.53381000  1
  S  S7  1  0.07646400  0.07646400  0.46619000  1
  S  S8  1  0.65733300  0.65733300  0.15756700  1
  S  S9  1  0.34266700  0.34266700  0.84243300  1
  S  S10  1  0.21223800  0.21223800  0.65087000  1
  S  S11  1  0.78776200  0.78776200  0.34913000  1
