# generated using pymatgen
data_Bi2Rh3S2
_symmetry_space_group_name_H-M   'P 1'
_cell_length_a   7.12141382
_cell_length_b   7.12141382
_cell_length_c   8.12816392
_cell_angle_alpha   56.31563084
_cell_angle_beta   56.31563084
_cell_angle_gamma   72.49996602
_symmetry_Int_Tables_number   1
_chemical_formula_structural   Bi2Rh3S2
_chemical_formula_sum   'Bi4 Rh6 S4'
_cell_volume   285.40403717
_cell_formula_units_Z   2
loop_
 _symmetry_equiv_pos_site_id
 _symmetry_equiv_pos_as_xyz
  1  'x, y, z'
loop_
 _atom_site_type_symbol
 _atom_site_label
 _atom_site_symmetry_multiplicity
 _atom_site_fract_x
 _atom_site_fract_y
 _atom_site_fract_z
 _atom_site_occupancy
  Bi  Bi0  1  0.00721000  0.00721000  0.24431800  1
  Bi  Bi1  1  0.50118000  0.50118000  0.24792000  1
  Bi  Bi2  1  0.49882000  0.49882000  0.75208000  1
  Bi  Bi3  1  0.99279000  0.99279000  0.75568200  1
  Rh  Rh4  1  0.00000000  0.50000000  0.00000000  1
  Rh  Rh5  1  0.24827500  0.75172500  0.00000000  1
  Rh  Rh6  1  0.75172500  0.24827500  0.00000000  1
  Rh  Rh7  1  0.50000000  0.00000000  0.00000000  1
  Rh  Rh8  1  0.75617600  0.75617700  0.24090300  1
  Rh  Rh9  1  0.24382300  0.24382300  0.75909700  1
  S  S10  1  0.99631100  0.45477000  0.30683900  1
  S  S11  1  0.45477000  0.99631100  0.30683900  1
  S  S12  1  0.00368900  0.54523000  0.69316100  1
  S  S13  1  0.54523000  0.00368900  0.69316100  1
