# generated using pymatgen
data_UBiTe
_symmetry_space_group_name_H-M   'P 1'
_cell_length_a   4.42416500
_cell_length_b   4.42416500
_cell_length_c   9.14445600
_cell_angle_alpha   90.00000000
_cell_angle_beta   90.00000000
_cell_angle_gamma   90.00000000
_symmetry_Int_Tables_number   1
_chemical_formula_structural   UBiTe
_chemical_formula_sum   'U2 Bi2 Te2'
_cell_volume   178.98659490
_cell_formula_units_Z   2
loop_
 _symmetry_equiv_pos_site_id
 _symmetry_equiv_pos_as_xyz
  1  'x, y, z'
loop_
 _atom_site_type_symbol
 _atom_site_label
 _atom_site_symmetry_multiplicity
 _atom_site_fract_x
 _atom_site_fract_y
 _atom_site_fract_z
 _atom_site_occupancy
  U  U0  1  0.50000000  0.00000000  0.28438900  1
  U  U1  1  0.00000000  0.50000000  0.71561100  1
  Bi  Bi2  1  0.00000000  0.00000000  0.00000000  1
  Bi  Bi3  1  0.50000000  0.50000000  0.00000000  1
  Te  Te4  1  0.00000000  0.50000000  0.36527600  1
  Te  Te5  1  0.50000000  0.00000000  0.63472400  1
