# generated using pymatgen
data_SrReN3
_symmetry_space_group_name_H-M   'P 1'
_cell_length_a   7.65557086
_cell_length_b   7.65557086
_cell_length_c   6.28829696
_cell_angle_alpha   77.39251392
_cell_angle_beta   77.39251392
_cell_angle_gamma   86.90638803
_symmetry_Int_Tables_number   1
_chemical_formula_structural   SrReN3
_chemical_formula_sum   'Sr4 Re4 N12'
_cell_volume   350.97711906
_cell_formula_units_Z   4
loop_
 _symmetry_equiv_pos_site_id
 _symmetry_equiv_pos_as_xyz
  1  'x, y, z'
loop_
 _atom_site_type_symbol
 _atom_site_label
 _atom_site_symmetry_multiplicity
 _atom_site_fract_x
 _atom_site_fract_y
 _atom_site_fract_z
 _atom_site_occupancy
  Sr  Sr0  1  0.31356400  0.68643600  0.25000000  1
  Sr  Sr1  1  0.90798800  0.09201200  0.25000000  1
  Sr  Sr2  1  0.09201200  0.90798800  0.75000000  1
  Sr  Sr3  1  0.68643600  0.31356400  0.75000000  1
  Re  Re4  1  0.79587600  0.62483100  0.25349700  1
  Re  Re5  1  0.37516900  0.20412400  0.24650300  1
  Re  Re6  1  0.62483100  0.79587600  0.75349700  1
  Re  Re7  1  0.20412400  0.37516900  0.74650300  1
  N  N8  1  0.76788000  0.98571800  0.66622100  1
  N  N9  1  0.13246200  0.59679600  0.66785900  1
  N  N10  1  0.33030100  0.35800000  0.98306500  1
  N  N11  1  0.59679600  0.13246200  0.16785900  1
  N  N12  1  0.86753800  0.40320400  0.33214100  1
  N  N13  1  0.23212000  0.01428200  0.33377900  1
  N  N14  1  0.98571800  0.76788000  0.16622100  1
  N  N15  1  0.35800000  0.33030100  0.48306500  1
  N  N16  1  0.64200000  0.66969900  0.51693500  1
  N  N17  1  0.01428200  0.23212000  0.83377900  1
  N  N18  1  0.40320400  0.86753800  0.83214100  1
  N  N19  1  0.66969900  0.64200000  0.01693500  1
