# generated using pymatgen
data_LiYb2InGe2
_symmetry_space_group_name_H-M   'P 1'
_cell_length_a   4.40166800
_cell_length_b   7.18733400
_cell_length_c   16.73207600
_cell_angle_alpha   90.00000000
_cell_angle_beta   90.00000000
_cell_angle_gamma   90.00000000
_symmetry_Int_Tables_number   1
_chemical_formula_structural   LiYb2InGe2
_chemical_formula_sum   'Li4 Yb8 In4 Ge8'
_cell_volume   529.34027443
_cell_formula_units_Z   4
loop_
 _symmetry_equiv_pos_site_id
 _symmetry_equiv_pos_as_xyz
  1  'x, y, z'
loop_
 _atom_site_type_symbol
 _atom_site_label
 _atom_site_symmetry_multiplicity
 _atom_site_fract_x
 _atom_site_fract_y
 _atom_site_fract_z
 _atom_site_occupancy
  Li  Li0  1  0.75000000  0.01095100  0.56758600  1
  Li  Li1  1  0.25000000  0.48904900  0.06758600  1
  Li  Li2  1  0.75000000  0.51095100  0.93241400  1
  Li  Li3  1  0.25000000  0.98904900  0.43241400  1
  Yb  Yb4  1  0.75000000  0.01282400  0.27865800  1
  Yb  Yb5  1  0.25000000  0.48717600  0.77865800  1
  Yb  Yb6  1  0.75000000  0.51282400  0.22134200  1
  Yb  Yb7  1  0.25000000  0.98717600  0.72134200  1
  Yb  Yb8  1  0.75000000  0.15905200  0.06207800  1
  Yb  Yb9  1  0.25000000  0.34094800  0.56207800  1
  Yb  Yb10  1  0.75000000  0.65905200  0.43792200  1
  Yb  Yb11  1  0.25000000  0.84094800  0.93792200  1
  In  In12  1  0.75000000  0.15652400  0.84761200  1
  In  In13  1  0.25000000  0.34347600  0.34761200  1
  In  In14  1  0.75000000  0.65652400  0.65238800  1
  In  In15  1  0.25000000  0.84347600  0.15238800  1
  Ge  Ge16  1  0.75000000  0.27089600  0.68509100  1
  Ge  Ge17  1  0.25000000  0.22910400  0.18509100  1
  Ge  Ge18  1  0.75000000  0.77089600  0.81490900  1
  Ge  Ge19  1  0.25000000  0.72910400  0.31490900  1
  Ge  Ge20  1  0.75000000  0.22870400  0.43853900  1
  Ge  Ge21  1  0.25000000  0.27129600  0.93853900  1
  Ge  Ge22  1  0.75000000  0.72870400  0.06146100  1
  Ge  Ge23  1  0.25000000  0.77129600  0.56146100  1
