# generated using pymatgen
data_Ba2Mg(BO3)2
_symmetry_space_group_name_H-M   'P 1'
_cell_length_a   6.44115236
_cell_length_b   6.44115236
_cell_length_c   6.44115267
_cell_angle_alpha   49.63455804
_cell_angle_beta   49.63455804
_cell_angle_gamma   49.63455800
_symmetry_Int_Tables_number   1
_chemical_formula_structural   Ba2Mg(BO3)2
_chemical_formula_sum   'Ba2 Mg1 B2 O6'
_cell_volume   142.65067391
_cell_formula_units_Z   1
loop_
 _symmetry_equiv_pos_site_id
 _symmetry_equiv_pos_as_xyz
  1  'x, y, z'
loop_
 _atom_site_type_symbol
 _atom_site_label
 _atom_site_symmetry_multiplicity
 _atom_site_fract_x
 _atom_site_fract_y
 _atom_site_fract_z
 _atom_site_occupancy
  Ba  Ba0  1  0.77601200  0.77601200  0.77601200  1
  Ba  Ba1  1  0.22398800  0.22398800  0.22398800  1
  Mg  Mg2  1  0.00000000  0.00000000  0.00000000  1
  B  B3  1  0.40962900  0.40962900  0.40962900  1
  B  B4  1  0.59037100  0.59037100  0.59037100  1
  O  O5  1  0.74028500  0.29256100  0.74028500  1
  O  O6  1  0.74028500  0.74028500  0.29256100  1
  O  O7  1  0.29256100  0.74028500  0.74028500  1
  O  O8  1  0.70743900  0.25971500  0.25971500  1
  O  O9  1  0.25971500  0.25971500  0.70743900  1
  O  O10  1  0.25971500  0.70743900  0.25971500  1
