# generated using pymatgen
data_LuGe2
_symmetry_space_group_name_H-M   'P 1'
_cell_length_a   8.01138973
_cell_length_b   8.01138973
_cell_length_c   3.88536700
_cell_angle_alpha   90.00000000
_cell_angle_beta   90.00000000
_cell_angle_gamma   150.76969622
_symmetry_Int_Tables_number   1
_chemical_formula_structural   LuGe2
_chemical_formula_sum   'Lu2 Ge4'
_cell_volume   121.77367595
_cell_formula_units_Z   2
loop_
 _symmetry_equiv_pos_site_id
 _symmetry_equiv_pos_as_xyz
  1  'x, y, z'
loop_
 _atom_site_type_symbol
 _atom_site_label
 _atom_site_symmetry_multiplicity
 _atom_site_fract_x
 _atom_site_fract_y
 _atom_site_fract_z
 _atom_site_occupancy
  Lu  Lu0  1  0.89765200  0.10234800  0.25000000  1
  Lu  Lu1  1  0.10234800  0.89765200  0.75000000  1
  Ge  Ge2  1  0.25253100  0.74746900  0.25000000  1
  Ge  Ge3  1  0.74746900  0.25253100  0.75000000  1
  Ge  Ge4  1  0.55612800  0.44387200  0.25000000  1
  Ge  Ge5  1  0.44387200  0.55612800  0.75000000  1
