# generated using pymatgen
data_Nb2AlC
_symmetry_space_group_name_H-M   'P 1'
_cell_length_a   3.13441697
_cell_length_b   3.13441697
_cell_length_c   13.89919400
_cell_angle_alpha   90.00000000
_cell_angle_beta   90.00000000
_cell_angle_gamma   120.00002044
_symmetry_Int_Tables_number   1
_chemical_formula_structural   Nb2AlC
_chemical_formula_sum   'Nb4 Al2 C2'
_cell_volume   118.25886279
_cell_formula_units_Z   2
loop_
 _symmetry_equiv_pos_site_id
 _symmetry_equiv_pos_as_xyz
  1  'x, y, z'
loop_
 _atom_site_type_symbol
 _atom_site_label
 _atom_site_symmetry_multiplicity
 _atom_site_fract_x
 _atom_site_fract_y
 _atom_site_fract_z
 _atom_site_occupancy
  Nb  Nb0  1  0.33333300  0.66666700  0.41090500  1
  Nb  Nb1  1  0.66666700  0.33333300  0.58909500  1
  Nb  Nb2  1  0.66666700  0.33333300  0.91090500  1
  Nb  Nb3  1  0.33333300  0.66666700  0.08909500  1
  Al  Al4  1  0.33333300  0.66666700  0.75000000  1
  Al  Al5  1  0.66666700  0.33333300  0.25000000  1
  C  C6  1  0.00000000  0.00000000  0.50000000  1
  C  C7  1  0.00000000  0.00000000  0.00000000  1
