# generated using pymatgen
data_Sr(SbO3)2
_symmetry_space_group_name_H-M   'P 1'
_cell_length_a   5.35351389
_cell_length_b   5.35351389
_cell_length_c   5.46347400
_cell_angle_alpha   90.00000000
_cell_angle_beta   90.00000000
_cell_angle_gamma   119.99999868
_symmetry_Int_Tables_number   1
_chemical_formula_structural   Sr(SbO3)2
_chemical_formula_sum   'Sr1 Sb2 O6'
_cell_volume   135.60552557
_cell_formula_units_Z   1
loop_
 _symmetry_equiv_pos_site_id
 _symmetry_equiv_pos_as_xyz
  1  'x, y, z'
loop_
 _atom_site_type_symbol
 _atom_site_label
 _atom_site_symmetry_multiplicity
 _atom_site_fract_x
 _atom_site_fract_y
 _atom_site_fract_z
 _atom_site_occupancy
  Sr  Sr0  1  0.00000000  0.00000000  0.00000000  1
  Sb  Sb1  1  0.33333300  0.66666700  0.50000000  1
  Sb  Sb2  1  0.66666700  0.33333300  0.50000000  1
  O  O3  1  0.37719400  0.37719400  0.70608600  1
  O  O4  1  0.62280600  0.00000000  0.70608600  1
  O  O5  1  0.00000000  0.62280600  0.70608600  1
  O  O6  1  0.37719400  0.00000000  0.29391400  1
  O  O7  1  0.00000000  0.37719400  0.29391400  1
  O  O8  1  0.62280600  0.62280600  0.29391400  1
