# generated using pymatgen
data_YB2C
_symmetry_space_group_name_H-M   'P 1'
_cell_length_a   6.80219700
_cell_length_b   6.80219700
_cell_length_c   7.49690600
_cell_angle_alpha   90.00000000
_cell_angle_beta   90.00000000
_cell_angle_gamma   90.00000000
_symmetry_Int_Tables_number   1
_chemical_formula_structural   YB2C
_chemical_formula_sum   'Y8 B16 C8'
_cell_volume   346.88097118
_cell_formula_units_Z   8
loop_
 _symmetry_equiv_pos_site_id
 _symmetry_equiv_pos_as_xyz
  1  'x, y, z'
loop_
 _atom_site_type_symbol
 _atom_site_label
 _atom_site_symmetry_multiplicity
 _atom_site_fract_x
 _atom_site_fract_y
 _atom_site_fract_z
 _atom_site_occupancy
  Y  Y0  1  0.30960500  0.80960500  0.75000000  1
  Y  Y1  1  0.19039500  0.30960500  0.25000000  1
  Y  Y2  1  0.80960500  0.69039500  0.25000000  1
  Y  Y3  1  0.69039500  0.19039500  0.75000000  1
  Y  Y4  1  0.69039500  0.19039500  0.25000000  1
  Y  Y5  1  0.80960500  0.69039500  0.75000000  1
  Y  Y6  1  0.19039500  0.30960500  0.75000000  1
  Y  Y7  1  0.30960500  0.80960500  0.25000000  1
  B  B8  1  0.15168300  0.03466400  0.00000000  1
  B  B9  1  0.53466400  0.65168300  0.50000000  1
  B  B10  1  0.84831700  0.96533600  0.00000000  1
  B  B11  1  0.34831700  0.53466400  0.00000000  1
  B  B12  1  0.65168300  0.46533600  0.00000000  1
  B  B13  1  0.03466400  0.84831700  0.50000000  1
  B  B14  1  0.96533600  0.15168300  0.50000000  1
  B  B15  1  0.46533600  0.34831700  0.50000000  1
  B  B16  1  0.09704600  0.59510900  0.00000000  1
  B  B17  1  0.40489100  0.09704600  0.50000000  1
  B  B18  1  0.59510900  0.90295400  0.50000000  1
  B  B19  1  0.59704600  0.90489100  0.00000000  1
  B  B20  1  0.40295400  0.09510900  0.00000000  1
  B  B21  1  0.90295400  0.40489100  0.00000000  1
  B  B22  1  0.09510900  0.59704600  0.50000000  1
  B  B23  1  0.90489100  0.40295400  0.50000000  1
  C  C24  1  0.17718500  0.04051400  0.50000000  1
  C  C25  1  0.67718500  0.45948600  0.50000000  1
  C  C26  1  0.32281500  0.54051400  0.50000000  1
  C  C27  1  0.95948600  0.17718500  0.00000000  1
  C  C28  1  0.04051400  0.82281500  0.00000000  1
  C  C29  1  0.54051400  0.67718500  0.00000000  1
  C  C30  1  0.82281500  0.95948600  0.50000000  1
  C  C31  1  0.45948600  0.32281500  0.00000000  1
