# generated using pymatgen
data_SmInPd
_symmetry_space_group_name_H-M   'P 1'
_cell_length_a   7.85196821
_cell_length_b   7.85196821
_cell_length_c   3.87619000
_cell_angle_alpha   90.00000000
_cell_angle_beta   90.00000000
_cell_angle_gamma   120.00000177
_symmetry_Int_Tables_number   1
_chemical_formula_structural   SmInPd
_chemical_formula_sum   'Sm3 In3 Pd3'
_cell_volume   206.96301667
_cell_formula_units_Z   3
loop_
 _symmetry_equiv_pos_site_id
 _symmetry_equiv_pos_as_xyz
  1  'x, y, z'
loop_
 _atom_site_type_symbol
 _atom_site_label
 _atom_site_symmetry_multiplicity
 _atom_site_fract_x
 _atom_site_fract_y
 _atom_site_fract_z
 _atom_site_occupancy
  Sm  Sm0  1  0.59164600  0.00000000  0.50000000  1
  Sm  Sm1  1  0.00000000  0.59164600  0.50000000  1
  Sm  Sm2  1  0.40835400  0.40835400  0.50000000  1
  In  In3  1  0.25725600  0.00000000  0.00000000  1
  In  In4  1  0.00000000  0.25725600  0.00000000  1
  In  In5  1  0.74274400  0.74274400  0.00000000  1
  Pd  Pd6  1  0.00000000  0.00000000  0.50000000  1
  Pd  Pd7  1  0.33333300  0.66666700  0.00000000  1
  Pd  Pd8  1  0.66666700  0.33333300  0.00000000  1
