# generated using pymatgen
data_SmNiGe2
_symmetry_space_group_name_H-M   'P 1'
_cell_length_a   8.61918039
_cell_length_b   8.61918039
_cell_length_c   4.22848500
_cell_angle_alpha   90.00000000
_cell_angle_beta   90.00000000
_cell_angle_gamma   151.91643046
_symmetry_Int_Tables_number   1
_chemical_formula_structural   SmNiGe2
_chemical_formula_sum   'Sm2 Ni2 Ge4'
_cell_volume   147.88198538
_cell_formula_units_Z   2
loop_
 _symmetry_equiv_pos_site_id
 _symmetry_equiv_pos_as_xyz
  1  'x, y, z'
loop_
 _atom_site_type_symbol
 _atom_site_label
 _atom_site_symmetry_multiplicity
 _atom_site_fract_x
 _atom_site_fract_y
 _atom_site_fract_z
 _atom_site_occupancy
  Sm  Sm0  1  0.89243900  0.10756100  0.75000000  1
  Sm  Sm1  1  0.10756100  0.89243900  0.25000000  1
  Ni  Ni2  1  0.31929500  0.68070500  0.25000000  1
  Ni  Ni3  1  0.68070500  0.31929500  0.75000000  1
  Ge  Ge4  1  0.45805600  0.54194400  0.25000000  1
  Ge  Ge5  1  0.25095000  0.74905000  0.75000000  1
  Ge  Ge6  1  0.74905000  0.25095000  0.25000000  1
  Ge  Ge7  1  0.54194400  0.45805600  0.75000000  1
