# generated using pymatgen
data_Ca7(H6Cl)2
_symmetry_space_group_name_H-M   'P 1'
_cell_length_a   9.32612957
_cell_length_b   9.32612957
_cell_length_c   3.68356900
_cell_angle_alpha   90.00000000
_cell_angle_beta   90.00000000
_cell_angle_gamma   119.99999693
_symmetry_Int_Tables_number   1
_chemical_formula_structural   Ca7(H6Cl)2
_chemical_formula_sum   'Ca7 H12 Cl2'
_cell_volume   277.46125360
_cell_formula_units_Z   1
loop_
 _symmetry_equiv_pos_site_id
 _symmetry_equiv_pos_as_xyz
  1  'x, y, z'
loop_
 _atom_site_type_symbol
 _atom_site_label
 _atom_site_symmetry_multiplicity
 _atom_site_fract_x
 _atom_site_fract_y
 _atom_site_fract_z
 _atom_site_occupancy
  Ca  Ca0  1  0.66666700  0.33333300  0.00000000  1
  Ca  Ca1  1  0.07709700  0.43843300  0.00000000  1
  Ca  Ca2  1  0.56156700  0.63866300  0.00000000  1
  Ca  Ca3  1  0.36133700  0.92290300  0.00000000  1
  Ca  Ca4  1  0.78110200  0.05145600  0.50000000  1
  Ca  Ca5  1  0.27035300  0.21889800  0.50000000  1
  Ca  Ca6  1  0.94854400  0.72964700  0.50000000  1
  H  H7  1  0.39117100  0.17618600  0.00000000  1
  H  H8  1  0.82381400  0.21498500  0.00000000  1
  H  H9  1  0.30210300  0.39197100  0.00000000  1
  H  H10  1  0.78501500  0.60882900  0.00000000  1
  H  H11  1  0.08986800  0.69789700  0.00000000  1
  H  H12  1  0.60802900  0.91013200  0.00000000  1
  H  H13  1  0.56419300  0.11845300  0.50000000  1
  H  H14  1  0.05727000  0.28509400  0.50000000  1
  H  H15  1  0.55426000  0.43580700  0.50000000  1
  H  H16  1  0.88154700  0.44574000  0.50000000  1
  H  H17  1  0.71490600  0.77217600  0.50000000  1
  H  H18  1  0.22782400  0.94273000  0.50000000  1
  Cl  Cl19  1  0.00000000  0.00000000  0.00000000  1
  Cl  Cl20  1  0.33333300  0.66666700  0.50000000  1
