# generated using pymatgen
data_Ca3SnH2
_symmetry_space_group_name_H-M   'P 1'
_cell_length_a   7.21764902
_cell_length_b   7.21764902
_cell_length_c   5.26806900
_cell_angle_alpha   90.00000000
_cell_angle_beta   90.00000000
_cell_angle_gamma   104.15150166
_symmetry_Int_Tables_number   1
_chemical_formula_structural   Ca3SnH2
_chemical_formula_sum   'Ca6 Sn2 H4'
_cell_volume   266.10875297
_cell_formula_units_Z   2
loop_
 _symmetry_equiv_pos_site_id
 _symmetry_equiv_pos_as_xyz
  1  'x, y, z'
loop_
 _atom_site_type_symbol
 _atom_site_label
 _atom_site_symmetry_multiplicity
 _atom_site_fract_x
 _atom_site_fract_y
 _atom_site_fract_z
 _atom_site_occupancy
  Ca  Ca0  1  0.89011700  0.10988300  0.25000000  1
  Ca  Ca1  1  0.40749600  0.18588400  0.25000000  1
  Ca  Ca2  1  0.18588400  0.40749600  0.75000000  1
  Ca  Ca3  1  0.81411600  0.59250400  0.25000000  1
  Ca  Ca4  1  0.59250400  0.81411600  0.75000000  1
  Ca  Ca5  1  0.10988300  0.89011700  0.75000000  1
  Sn  Sn6  1  0.69240000  0.30760000  0.75000000  1
  Sn  Sn7  1  0.30760000  0.69240000  0.25000000  1
  H  H8  1  0.15097200  0.15097200  0.00000000  1
  H  H9  1  0.15097200  0.15097200  0.50000000  1
  H  H10  1  0.84902800  0.84902800  0.00000000  1
  H  H11  1  0.84902800  0.84902800  0.50000000  1
