# generated using pymatgen
data_KTi5Se8
_symmetry_space_group_name_H-M   'P 1'
_cell_length_a   9.62581823
_cell_length_b   9.62581823
_cell_length_c   9.23470258
_cell_angle_alpha   75.37982670
_cell_angle_beta   75.37982670
_cell_angle_gamma   21.68196247
_symmetry_Int_Tables_number   1
_chemical_formula_structural   KTi5Se8
_chemical_formula_sum   'K1 Ti5 Se8'
_cell_volume   305.50710561
_cell_formula_units_Z   1
loop_
 _symmetry_equiv_pos_site_id
 _symmetry_equiv_pos_as_xyz
  1  'x, y, z'
loop_
 _atom_site_type_symbol
 _atom_site_label
 _atom_site_symmetry_multiplicity
 _atom_site_fract_x
 _atom_site_fract_y
 _atom_site_fract_z
 _atom_site_occupancy
  K  K0  1  0.50000000  0.50000000  0.50000000  1
  Ti  Ti1  1  0.00000000  0.00000000  0.00000000  1
  Ti  Ti2  1  0.34426500  0.34426500  0.99902100  1
  Ti  Ti3  1  0.29152800  0.29152800  0.34813900  1
  Ti  Ti4  1  0.70847200  0.70847200  0.65186100  1
  Ti  Ti5  1  0.65573500  0.65573500  0.00097900  1
  Se  Se6  1  0.42608300  0.42608300  0.17477100  1
  Se  Se7  1  0.91333100  0.91333100  0.82083600  1
  Se  Se8  1  0.83953700  0.83953700  0.49774500  1
  Se  Se9  1  0.75655900  0.75655900  0.16529400  1
  Se  Se10  1  0.24344100  0.24344100  0.83470700  1
  Se  Se11  1  0.16046300  0.16046300  0.50225500  1
  Se  Se12  1  0.08666900  0.08666900  0.17916400  1
  Se  Se13  1  0.57391700  0.57391700  0.82522900  1
