# generated using pymatgen
data_RbSnCl3
_symmetry_space_group_name_H-M   'P 1'
_cell_length_a   7.84638503
_cell_length_b   7.84638503
_cell_length_c   7.84638508
_cell_angle_alpha   61.22915159
_cell_angle_beta   61.22915159
_cell_angle_gamma   61.22915282
_symmetry_Int_Tables_number   1
_chemical_formula_structural   RbSnCl3
_chemical_formula_sum   'Rb2 Sn2 Cl6'
_cell_volume   351.02352356
_cell_formula_units_Z   2
loop_
 _symmetry_equiv_pos_site_id
 _symmetry_equiv_pos_as_xyz
  1  'x, y, z'
loop_
 _atom_site_type_symbol
 _atom_site_label
 _atom_site_symmetry_multiplicity
 _atom_site_fract_x
 _atom_site_fract_y
 _atom_site_fract_z
 _atom_site_occupancy
  Rb  Rb0  1  0.27222100  0.27222100  0.27222100  1
  Rb  Rb1  1  0.77222100  0.77222100  0.77222100  1
  Sn  Sn2  1  0.00052300  0.00052300  0.00052300  1
  Sn  Sn3  1  0.50052300  0.50052300  0.50052300  1
  Cl  Cl4  1  0.84912000  0.21989400  0.68674300  1
  Cl  Cl5  1  0.68674300  0.84912000  0.21989400  1
  Cl  Cl6  1  0.21989400  0.68674300  0.84912000  1
  Cl  Cl7  1  0.34912000  0.18674300  0.71989400  1
  Cl  Cl8  1  0.18674300  0.71989400  0.34912000  1
  Cl  Cl9  1  0.71989400  0.34912000  0.18674300  1
