# generated using pymatgen
data_SrGe3Pd
_symmetry_space_group_name_H-M   'P 1'
_cell_length_a   6.11174542
_cell_length_b   6.11174542
_cell_length_c   6.11174542
_cell_angle_alpha   136.69224675
_cell_angle_beta   136.69224675
_cell_angle_gamma   62.91190726
_symmetry_Int_Tables_number   1
_chemical_formula_structural   SrGe3Pd
_chemical_formula_sum   'Sr1 Ge3 Pd1'
_cell_volume   106.06585319
_cell_formula_units_Z   1
loop_
 _symmetry_equiv_pos_site_id
 _symmetry_equiv_pos_as_xyz
  1  'x, y, z'
loop_
 _atom_site_type_symbol
 _atom_site_label
 _atom_site_symmetry_multiplicity
 _atom_site_fract_x
 _atom_site_fract_y
 _atom_site_fract_z
 _atom_site_occupancy
  Sr  Sr0  1  0.99994200  0.99994200  0.00000000  1
  Ge  Ge1  1  0.39982500  0.39982500  0.00000000  1
  Ge  Ge2  1  0.75351600  0.25351600  0.50000000  1
  Ge  Ge3  1  0.25351600  0.75351600  0.50000000  1
  Pd  Pd4  1  0.64089800  0.64089800  0.00000000  1
