# generated using pymatgen
data_Tm2Co3Si5
_symmetry_space_group_name_H-M   'P 1'
_cell_length_a   7.84066209
_cell_length_b   7.84066209
_cell_length_c   7.84066209
_cell_angle_alpha   139.09395927
_cell_angle_beta   105.44885028
_cell_angle_gamma   88.73008163
_symmetry_Int_Tables_number   1
_chemical_formula_structural   Tm2Co3Si5
_chemical_formula_sum   'Tm4 Co6 Si10'
_cell_volume   291.71315237
_cell_formula_units_Z   2
loop_
 _symmetry_equiv_pos_site_id
 _symmetry_equiv_pos_as_xyz
  1  'x, y, z'
loop_
 _atom_site_type_symbol
 _atom_site_label
 _atom_site_symmetry_multiplicity
 _atom_site_fract_x
 _atom_site_fract_y
 _atom_site_fract_z
 _atom_site_occupancy
  Tm  Tm0  1  0.36777800  0.63519600  0.73258200  1
  Tm  Tm1  1  0.90261500  0.13519600  0.76741800  1
  Tm  Tm2  1  0.09738500  0.86480400  0.23258200  1
  Tm  Tm3  1  0.63222200  0.36480400  0.26741800  1
  Co  Co4  1  0.02990900  0.63863600  0.39127300  1
  Co  Co5  1  0.97009100  0.36136400  0.60872700  1
  Co  Co6  1  0.50000000  0.75000000  0.25000000  1
  Co  Co7  1  0.50000000  0.25000000  0.75000000  1
  Co  Co8  1  0.24736200  0.13863600  0.10872700  1
  Co  Co9  1  0.75263800  0.86136400  0.89127300  1
  Si  Si10  1  0.27483400  0.52483400  0.25000000  1
  Si  Si11  1  0.72516600  0.97516600  0.25000000  1
  Si  Si12  1  0.00000000  0.75000000  0.75000000  1
  Si  Si13  1  0.23986000  0.39986100  0.83999900  1
  Si  Si14  1  0.76014000  0.60013900  0.16000100  1
  Si  Si15  1  0.44013900  0.10013900  0.33999900  1
  Si  Si16  1  0.00000000  0.25000000  0.25000000  1
  Si  Si17  1  0.55986100  0.89986100  0.66000100  1
  Si  Si18  1  0.72516600  0.47516600  0.75000000  1
  Si  Si19  1  0.27483400  0.02483400  0.75000000  1
