# generated using pymatgen
data_CsBeAsO4
_symmetry_space_group_name_H-M   'P 1'
_cell_length_a   5.23421100
_cell_length_b   8.98364100
_cell_length_c   9.55200200
_cell_angle_alpha   90.00000000
_cell_angle_beta   90.00000000
_cell_angle_gamma   90.00000000
_symmetry_Int_Tables_number   1
_chemical_formula_structural   CsBeAsO4
_chemical_formula_sum   'Cs4 Be4 As4 O16'
_cell_volume   449.15684137
_cell_formula_units_Z   4
loop_
 _symmetry_equiv_pos_site_id
 _symmetry_equiv_pos_as_xyz
  1  'x, y, z'
loop_
 _atom_site_type_symbol
 _atom_site_label
 _atom_site_symmetry_multiplicity
 _atom_site_fract_x
 _atom_site_fract_y
 _atom_site_fract_z
 _atom_site_occupancy
  Cs  Cs0  1  0.49868400  0.31823900  0.49298100  1
  Cs  Cs1  1  0.99868400  0.68176100  0.50701900  1
  Cs  Cs2  1  0.49868400  0.18176100  0.99298100  1
  Cs  Cs3  1  0.99868400  0.81823900  0.00701900  1
  Be  Be4  1  0.99844900  0.09626700  0.33078200  1
  Be  Be5  1  0.49844900  0.59626700  0.16921800  1
  Be  Be6  1  0.99844900  0.40373300  0.83078200  1
  Be  Be7  1  0.49844900  0.90373300  0.66921800  1
  As  As8  1  0.50006100  0.91439500  0.32619000  1
  As  As9  1  0.00006100  0.08560500  0.67381000  1
  As  As10  1  0.50006100  0.58560500  0.82619000  1
  As  As11  1  0.00006100  0.41439500  0.17381000  1
  O  O12  1  0.01673500  0.12768700  0.49970000  1
  O  O13  1  0.51673500  0.62768700  0.00030000  1
  O  O14  1  0.01673500  0.37231300  0.99970000  1
  O  O15  1  0.51673500  0.87231300  0.50030000  1
  O  O16  1  0.69549000  0.46377900  0.22297400  1
  O  O17  1  0.19549000  0.53622100  0.77702600  1
  O  O18  1  0.69549000  0.03622100  0.72297400  1
  O  O19  1  0.19549000  0.96377900  0.27702600  1
  O  O20  1  0.58972600  0.75639500  0.23933700  1
  O  O21  1  0.08972600  0.24360500  0.76066300  1
  O  O22  1  0.58972600  0.74360500  0.73933700  1
  O  O23  1  0.08972600  0.25639500  0.26066300  1
  O  O24  1  0.70685500  0.44499300  0.77862000  1
  O  O25  1  0.20685500  0.55500700  0.22138000  1
  O  O26  1  0.70685500  0.05500700  0.27862000  1
  O  O27  1  0.20685500  0.94499300  0.72138000  1
