# generated using pymatgen
data_K3AlO3
_symmetry_space_group_name_H-M   'P 1'
_cell_length_a   6.61418279
_cell_length_b   6.61418279
_cell_length_c   6.56091144
_cell_angle_alpha   83.36528331
_cell_angle_beta   83.36528331
_cell_angle_gamma   115.74944318
_symmetry_Int_Tables_number   1
_chemical_formula_structural   K3AlO3
_chemical_formula_sum   'K6 Al2 O6'
_cell_volume   252.34644867
_cell_formula_units_Z   2
loop_
 _symmetry_equiv_pos_site_id
 _symmetry_equiv_pos_as_xyz
  1  'x, y, z'
loop_
 _atom_site_type_symbol
 _atom_site_label
 _atom_site_symmetry_multiplicity
 _atom_site_fract_x
 _atom_site_fract_y
 _atom_site_fract_z
 _atom_site_occupancy
  K  K0  1  0.37172000  0.37172000  0.35135900  1
  K  K1  1  0.62828000  0.62828000  0.64864100  1
  K  K2  1  0.19861900  0.80138100  0.50000000  1
  K  K3  1  0.80138100  0.19862000  0.50000000  1
  K  K4  1  0.26440000  0.73560000  0.00000000  1
  K  K5  1  0.73560000  0.26440000  0.00000000  1
  Al  Al6  1  0.83871900  0.83871900  0.14617300  1
  Al  Al7  1  0.16128100  0.16128100  0.85382700  1
  O  O8  1  0.84880400  0.58820000  0.26212700  1
  O  O9  1  0.41180000  0.15119600  0.73787300  1
  O  O10  1  0.15119600  0.41180000  0.73787300  1
  O  O11  1  0.58820000  0.84880400  0.26212700  1
  O  O12  1  0.89828200  0.89828200  0.85722200  1
  O  O13  1  0.10171800  0.10171800  0.14277800  1
