# generated using pymatgen
data_K2NaGaAs2
_symmetry_space_group_name_H-M   'P 1'
_cell_length_a   8.91038154
_cell_length_b   8.91038154
_cell_length_c   8.91038154
_cell_angle_alpha   136.14591670
_cell_angle_beta   135.12823514
_cell_angle_gamma   64.54550142
_symmetry_Int_Tables_number   1
_chemical_formula_structural   K2NaGaAs2
_chemical_formula_sum   'K4 Na2 Ga2 As4'
_cell_volume   340.98814972
_cell_formula_units_Z   2
loop_
 _symmetry_equiv_pos_site_id
 _symmetry_equiv_pos_as_xyz
  1  'x, y, z'
loop_
 _atom_site_type_symbol
 _atom_site_label
 _atom_site_symmetry_multiplicity
 _atom_site_fract_x
 _atom_site_fract_y
 _atom_site_fract_z
 _atom_site_occupancy
  K  K0  1  0.08218200  0.32705400  0.75512800  1
  K  K1  1  0.57192600  0.82705400  0.74487200  1
  K  K2  1  0.42807400  0.17294600  0.25512800  1
  K  K3  1  0.91781800  0.67294600  0.24487200  1
  Na  Na4  1  0.50000000  0.75000000  0.25000000  1
  Na  Na5  1  0.50000000  0.25000000  0.75000000  1
  Ga  Ga6  1  0.00000000  0.25000000  0.25000000  1
  Ga  Ga7  1  0.00000000  0.75000000  0.75000000  1
  As  As8  1  0.29693100  0.59481200  0.70211800  1
  As  As9  1  0.70306900  0.40518800  0.29788200  1
  As  As10  1  0.10730600  0.90518800  0.20211800  1
  As  As11  1  0.89269400  0.09481200  0.79788200  1
