# generated using pymatgen
data_Re2S2O13
_symmetry_space_group_name_H-M   'P 1'
_cell_length_a   6.05887100
_cell_length_b   8.46039500
_cell_length_c   9.78972700
_cell_angle_alpha   90.00000000
_cell_angle_beta   90.00000000
_cell_angle_gamma   90.00000000
_symmetry_Int_Tables_number   1
_chemical_formula_structural   Re2S2O13
_chemical_formula_sum   'Re4 S4 O26'
_cell_volume   501.82573224
_cell_formula_units_Z   2
loop_
 _symmetry_equiv_pos_site_id
 _symmetry_equiv_pos_as_xyz
  1  'x, y, z'
loop_
 _atom_site_type_symbol
 _atom_site_label
 _atom_site_symmetry_multiplicity
 _atom_site_fract_x
 _atom_site_fract_y
 _atom_site_fract_z
 _atom_site_occupancy
  Re  Re0  1  0.96426300  0.18580300  0.59949400  1
  Re  Re1  1  0.96426300  0.81419700  0.40050600  1
  Re  Re2  1  0.96426300  0.68580300  0.90050600  1
  Re  Re3  1  0.96426300  0.31419700  0.09949400  1
  S  S4  1  0.29032800  0.37272900  0.81625200  1
  S  S5  1  0.29032800  0.62727100  0.18374800  1
  S  S6  1  0.29032800  0.87272900  0.68374800  1
  S  S7  1  0.29032800  0.12727100  0.31625200  1
  O  O8  1  0.15477200  0.35029100  0.67872200  1
  O  O9  1  0.15477200  0.64970900  0.32127800  1
  O  O10  1  0.15477200  0.85029100  0.82127800  1
  O  O11  1  0.15477200  0.14970900  0.17872200  1
  O  O12  1  0.17324500  0.27230200  0.91921600  1
  O  O13  1  0.17324500  0.72769800  0.08078400  1
  O  O14  1  0.17324500  0.77230200  0.58078400  1
  O  O15  1  0.17324500  0.22769800  0.41921600  1
  O  O16  1  0.25932200  0.54412300  0.84872700  1
  O  O17  1  0.25932200  0.45587700  0.15127300  1
  O  O18  1  0.25932200  0.04412300  0.65127300  1
  O  O19  1  0.25932200  0.95587700  0.34872700  1
  O  O20  1  0.51598000  0.33370500  0.79536300  1
  O  O21  1  0.51598000  0.66629500  0.20463700  1
  O  O22  1  0.51598000  0.83370500  0.70463700  1
  O  O23  1  0.51598000  0.16629500  0.29536300  1
  O  O24  1  0.89024200  0.00000000  0.50000000  1
  O  O25  1  0.89024200  0.50000000  0.00000000  1
  O  O26  1  0.84942200  0.12354700  0.74910900  1
  O  O27  1  0.84942200  0.87645300  0.25089100  1
  O  O28  1  0.84942200  0.62354700  0.75089100  1
  O  O29  1  0.84942200  0.37645300  0.24910900  1
  O  O30  1  0.77264700  0.31318500  0.53375400  1
  O  O31  1  0.77264700  0.68681500  0.46624600  1
  O  O32  1  0.77264700  0.81318500  0.96624600  1
  O  O33  1  0.77264700  0.18681500  0.03375400  1
