# generated using pymatgen
data_BaWN3
_symmetry_space_group_name_H-M   'P 1'
_cell_length_a   5.78805000
_cell_length_b   7.69912900
_cell_length_c   10.44134257
_cell_angle_alpha   48.35601549
_cell_angle_beta   90.00000000
_cell_angle_gamma   90.00000000
_symmetry_Int_Tables_number   1
_chemical_formula_structural   BaWN3
_chemical_formula_sum   'Ba4 W4 N12'
_cell_volume   347.71092359
_cell_formula_units_Z   4
loop_
 _symmetry_equiv_pos_site_id
 _symmetry_equiv_pos_as_xyz
  1  'x, y, z'
loop_
 _atom_site_type_symbol
 _atom_site_label
 _atom_site_symmetry_multiplicity
 _atom_site_fract_x
 _atom_site_fract_y
 _atom_site_fract_z
 _atom_site_occupancy
  Ba  Ba0  1  0.25960000  0.71444000  0.62658000  1
  Ba  Ba1  1  0.74040000  0.28556000  0.37342000  1
  Ba  Ba2  1  0.75960000  0.28556000  0.87342000  1
  Ba  Ba3  1  0.24040000  0.71444000  0.12658000  1
  W  W4  1  0.23833000  0.15875000  0.63785000  1
  W  W5  1  0.26167000  0.15875000  0.13785000  1
  W  W6  1  0.73833000  0.84125000  0.86215000  1
  W  W7  1  0.76167000  0.84125000  0.36215000  1
  N  N8  1  0.44107000  0.87520000  0.28978000  1
  N  N9  1  0.55893000  0.12480000  0.71022000  1
  N  N10  1  0.93537000  0.58168000  0.43080000  1
  N  N11  1  0.56463000  0.58168000  0.93080000  1
  N  N12  1  0.94107000  0.12480000  0.21022000  1
  N  N13  1  0.24053000  0.20939000  0.94374000  1
  N  N14  1  0.43537000  0.41832000  0.06920000  1
  N  N15  1  0.75947000  0.79061000  0.05626000  1
  N  N16  1  0.25947000  0.20939000  0.44374000  1
  N  N17  1  0.06463000  0.41832000  0.56920000  1
  N  N18  1  0.74053000  0.79061000  0.55626000  1
  N  N19  1  0.05893000  0.87520000  0.78978000  1
