# generated using pymatgen
data_Ge3Rh2Se3
_symmetry_space_group_name_H-M   'P 1'
_cell_length_a   8.68077500
_cell_length_b   8.68077500
_cell_length_c   8.68077436
_cell_angle_alpha   89.88927764
_cell_angle_beta   89.88927764
_cell_angle_gamma   89.88927719
_symmetry_Int_Tables_number   1
_chemical_formula_structural   Ge3Rh2Se3
_chemical_formula_sum   'Ge12 Rh8 Se12'
_cell_volume   654.14350988
_cell_formula_units_Z   4
loop_
 _symmetry_equiv_pos_site_id
 _symmetry_equiv_pos_as_xyz
  1  'x, y, z'
loop_
 _atom_site_type_symbol
 _atom_site_label
 _atom_site_symmetry_multiplicity
 _atom_site_fract_x
 _atom_site_fract_y
 _atom_site_fract_z
 _atom_site_occupancy
  Ge  Ge0  1  0.84909600  0.66608700  0.00205200  1
  Ge  Ge1  1  0.00205200  0.84909600  0.66608700  1
  Ge  Ge2  1  0.66608700  0.00205200  0.84909600  1
  Ge  Ge3  1  0.15090400  0.33391300  0.99794800  1
  Ge  Ge4  1  0.99794800  0.15090400  0.33391300  1
  Ge  Ge5  1  0.33391300  0.99794800  0.15090400  1
  Ge  Ge6  1  0.65206600  0.16604000  0.50178800  1
  Ge  Ge7  1  0.50178800  0.65206600  0.16604000  1
  Ge  Ge8  1  0.16604000  0.50178800  0.65206600  1
  Ge  Ge9  1  0.34793400  0.83396000  0.49821200  1
  Ge  Ge10  1  0.49821200  0.34793400  0.83396000  1
  Ge  Ge11  1  0.83396000  0.49821200  0.34793400  1
  Rh  Rh12  1  0.75191700  0.75191700  0.75191700  1
  Rh  Rh13  1  0.24808300  0.24808300  0.24808300  1
  Rh  Rh14  1  0.24887000  0.25253600  0.74940800  1
  Rh  Rh15  1  0.74940800  0.24887000  0.25253600  1
  Rh  Rh16  1  0.25253600  0.74940800  0.24887000  1
  Rh  Rh17  1  0.75113000  0.74746400  0.25059200  1
  Rh  Rh18  1  0.25059200  0.75113000  0.74746400  1
  Rh  Rh19  1  0.74746400  0.25059200  0.75113000  1
  Se  Se20  1  0.00043900  0.85781300  0.35252500  1
  Se  Se21  1  0.35252500  0.00043900  0.85781300  1
  Se  Se22  1  0.85781300  0.35252500  0.00043900  1
  Se  Se23  1  0.64251300  0.85334700  0.50314700  1
  Se  Se24  1  0.50314700  0.64251300  0.85334700  1
  Se  Se25  1  0.85334700  0.50314700  0.64251300  1
  Se  Se26  1  0.35748700  0.14665300  0.49685300  1
  Se  Se27  1  0.49685300  0.35748700  0.14665300  1
  Se  Se28  1  0.14665300  0.49685300  0.35748700  1
  Se  Se29  1  0.64747500  0.99956100  0.14218700  1
  Se  Se30  1  0.14218700  0.64747500  0.99956100  1
  Se  Se31  1  0.99956100  0.14218700  0.64747500  1
