# generated using pymatgen
data_V2Se2O11
_symmetry_space_group_name_H-M   'P 1'
_cell_length_a   8.35097638
_cell_length_b   8.35097638
_cell_length_c   9.75653507
_cell_angle_alpha   68.73235392
_cell_angle_beta   68.73235392
_cell_angle_gamma   39.83984840
_symmetry_Int_Tables_number   1
_chemical_formula_structural   V2Se2O11
_chemical_formula_sum   'V4 Se4 O22'
_cell_volume   402.15214887
_cell_formula_units_Z   2
loop_
 _symmetry_equiv_pos_site_id
 _symmetry_equiv_pos_as_xyz
  1  'x, y, z'
loop_
 _atom_site_type_symbol
 _atom_site_label
 _atom_site_symmetry_multiplicity
 _atom_site_fract_x
 _atom_site_fract_y
 _atom_site_fract_z
 _atom_site_occupancy
  V  V0  1  0.19809600  0.04521900  0.71048000  1
  V  V1  1  0.95478100  0.80190400  0.78952000  1
  V  V2  1  0.80190400  0.95478100  0.28952000  1
  V  V3  1  0.04521900  0.19809600  0.21048000  1
  Se  Se4  1  0.76411700  0.52861500  0.90628500  1
  Se  Se5  1  0.47138500  0.23588300  0.59371500  1
  Se  Se6  1  0.23588300  0.47138500  0.09371500  1
  Se  Se7  1  0.52861500  0.76411700  0.40628500  1
  O  O8  1  0.90357500  0.09642500  0.25000000  1
  O  O9  1  0.09642500  0.90357500  0.75000000  1
  O  O10  1  0.04602300  0.27010900  0.57864400  1
  O  O11  1  0.72989100  0.95397700  0.92135600  1
  O  O12  1  0.95397700  0.72989100  0.42135600  1
  O  O13  1  0.27010900  0.04602300  0.07864400  1
  O  O14  1  0.77877000  0.51422500  0.07959900  1
  O  O15  1  0.48577500  0.22123000  0.42040100  1
  O  O16  1  0.22123000  0.48577500  0.92040100  1
  O  O17  1  0.51422500  0.77877000  0.57959900  1
  O  O18  1  0.95649900  0.22800000  0.88387000  1
  O  O19  1  0.77200000  0.04350100  0.61613000  1
  O  O20  1  0.04350100  0.77200000  0.11613000  1
  O  O21  1  0.22800000  0.95649900  0.38387000  1
  O  O22  1  0.88945900  0.62082300  0.77641300  1
  O  O23  1  0.37917700  0.11054100  0.72358700  1
  O  O24  1  0.11054100  0.37917700  0.22358700  1
  O  O25  1  0.62082300  0.88945900  0.27641300  1
  O  O26  1  0.47288400  0.70887900  0.88956100  1
  O  O27  1  0.29112100  0.52711600  0.61043900  1
  O  O28  1  0.52711600  0.29112100  0.11043900  1
  O  O29  1  0.70887900  0.47288400  0.38956100  1
