# generated using pymatgen
data_Rb2NaSbCl6
_symmetry_space_group_name_H-M   'P 1'
_cell_length_a   7.67071416
_cell_length_b   7.67071416
_cell_length_c   7.67071416
_cell_angle_alpha   60.00000000
_cell_angle_beta   60.00000000
_cell_angle_gamma   60.00000000
_symmetry_Int_Tables_number   1
_chemical_formula_structural   Rb2NaSbCl6
_chemical_formula_sum   'Rb2 Na1 Sb1 Cl6'
_cell_volume   319.14820132
_cell_formula_units_Z   1
loop_
 _symmetry_equiv_pos_site_id
 _symmetry_equiv_pos_as_xyz
  1  'x, y, z'
loop_
 _atom_site_type_symbol
 _atom_site_label
 _atom_site_symmetry_multiplicity
 _atom_site_fract_x
 _atom_site_fract_y
 _atom_site_fract_z
 _atom_site_occupancy
  Rb  Rb0  1  0.75000000  0.75000000  0.75000000  1
  Rb  Rb1  1  0.25000000  0.25000000  0.25000000  1
  Na  Na2  1  0.50000000  0.50000000  0.50000000  1
  Sb  Sb3  1  0.00000000  0.00000000  0.00000000  1
  Cl  Cl4  1  0.75493700  0.24506300  0.24506300  1
  Cl  Cl5  1  0.24506300  0.24506300  0.75493700  1
  Cl  Cl6  1  0.24506300  0.75493700  0.75493700  1
  Cl  Cl7  1  0.24506300  0.75493700  0.24506300  1
  Cl  Cl8  1  0.75493700  0.24506300  0.75493700  1
  Cl  Cl9  1  0.75493700  0.75493700  0.24506300  1
