# generated using pymatgen
data_Ba3Ge4
_symmetry_space_group_name_H-M   'P 1'
_cell_length_a   8.58301256
_cell_length_b   8.58301256
_cell_length_c   12.27184300
_cell_angle_alpha   90.00000000
_cell_angle_beta   90.00000000
_cell_angle_gamma   91.93906139
_symmetry_Int_Tables_number   1
_chemical_formula_structural   Ba3Ge4
_chemical_formula_sum   'Ba12 Ge16'
_cell_volume   903.52574082
_cell_formula_units_Z   4
loop_
 _symmetry_equiv_pos_site_id
 _symmetry_equiv_pos_as_xyz
  1  'x, y, z'
loop_
 _atom_site_type_symbol
 _atom_site_label
 _atom_site_symmetry_multiplicity
 _atom_site_fract_x
 _atom_site_fract_y
 _atom_site_fract_z
 _atom_site_occupancy
  Ba  Ba0  1  0.00000000  0.50000000  0.74451600  1
  Ba  Ba1  1  0.50000000  0.00000000  0.25548400  1
  Ba  Ba2  1  0.00000000  0.50000000  0.25548400  1
  Ba  Ba3  1  0.50000000  0.00000000  0.74451600  1
  Ba  Ba4  1  0.50000000  0.50000000  0.32539700  1
  Ba  Ba5  1  0.50000000  0.50000000  0.67460300  1
  Ba  Ba6  1  0.00000000  0.00000000  0.16142300  1
  Ba  Ba7  1  0.00000000  0.00000000  0.83857700  1
  Ba  Ba8  1  0.33681100  0.33681100  0.00000000  1
  Ba  Ba9  1  0.66318900  0.66318900  0.00000000  1
  Ba  Ba10  1  0.84084000  0.15916000  0.50000000  1
  Ba  Ba11  1  0.15916000  0.84084000  0.50000000  1
  Ge  Ge12  1  0.80327300  0.80327300  0.34981300  1
  Ge  Ge13  1  0.19672700  0.19672700  0.34981300  1
  Ge  Ge14  1  0.80327300  0.80327300  0.65018700  1
  Ge  Ge15  1  0.19672700  0.19672700  0.65018700  1
  Ge  Ge16  1  0.29514500  0.70485500  0.13817300  1
  Ge  Ge17  1  0.70485500  0.29514500  0.13817300  1
  Ge  Ge18  1  0.70485500  0.29514500  0.86182700  1
  Ge  Ge19  1  0.29514500  0.70485500  0.86182700  1
  Ge  Ge20  1  0.06383200  0.65978000  0.00000000  1
  Ge  Ge21  1  0.93616800  0.34022000  0.00000000  1
  Ge  Ge22  1  0.65978000  0.06383200  0.00000000  1
  Ge  Ge23  1  0.34022000  0.93616800  0.00000000  1
  Ge  Ge24  1  0.58872600  0.80052600  0.50000000  1
  Ge  Ge25  1  0.41127400  0.19947400  0.50000000  1
  Ge  Ge26  1  0.80052600  0.58872600  0.50000000  1
  Ge  Ge27  1  0.19947400  0.41127400  0.50000000  1
