# generated using pymatgen
data_BaPr2PdO5
_symmetry_space_group_name_H-M   'P 1'
_cell_length_a   6.86452200
_cell_length_b   6.86452200
_cell_length_c   5.99689500
_cell_angle_alpha   90.00000000
_cell_angle_beta   90.00000000
_cell_angle_gamma   90.00000000
_symmetry_Int_Tables_number   1
_chemical_formula_structural   BaPr2PdO5
_chemical_formula_sum   'Ba2 Pr4 Pd2 O10'
_cell_volume   282.58366097
_cell_formula_units_Z   2
loop_
 _symmetry_equiv_pos_site_id
 _symmetry_equiv_pos_as_xyz
  1  'x, y, z'
loop_
 _atom_site_type_symbol
 _atom_site_label
 _atom_site_symmetry_multiplicity
 _atom_site_fract_x
 _atom_site_fract_y
 _atom_site_fract_z
 _atom_site_occupancy
  Ba  Ba0  1  0.50000000  0.50000000  0.00000000  1
  Ba  Ba1  1  0.00000000  0.00000000  0.00000000  1
  Pr  Pr2  1  0.67367900  0.17367900  0.50000000  1
  Pr  Pr3  1  0.17367900  0.32632100  0.50000000  1
  Pr  Pr4  1  0.82632100  0.67367900  0.50000000  1
  Pr  Pr5  1  0.32632100  0.82632100  0.50000000  1
  Pd  Pd6  1  0.00000000  0.50000000  0.00000000  1
  Pd  Pd7  1  0.50000000  0.00000000  0.00000000  1
  O  O8  1  0.50000000  0.50000000  0.50000000  1
  O  O9  1  0.00000000  0.00000000  0.50000000  1
  O  O10  1  0.14038400  0.64038400  0.25015300  1
  O  O11  1  0.85961600  0.35961600  0.25015300  1
  O  O12  1  0.35961600  0.14038400  0.25015300  1
  O  O13  1  0.64038400  0.85961600  0.25015300  1
  O  O14  1  0.14038400  0.64038400  0.74984700  1
  O  O15  1  0.64038400  0.85961600  0.74984700  1
  O  O16  1  0.85961600  0.35961600  0.74984700  1
  O  O17  1  0.35961600  0.14038400  0.74984700  1
