# generated using pymatgen
data_Ba3MnN3
_symmetry_space_group_name_H-M   'P 1'
_cell_length_a   8.28678583
_cell_length_b   8.28678583
_cell_length_c   5.53418000
_cell_angle_alpha   90.00000000
_cell_angle_beta   90.00000000
_cell_angle_gamma   119.99999867
_symmetry_Int_Tables_number   1
_chemical_formula_structural   Ba3MnN3
_chemical_formula_sum   'Ba6 Mn2 N6'
_cell_volume   329.12141986
_cell_formula_units_Z   2
loop_
 _symmetry_equiv_pos_site_id
 _symmetry_equiv_pos_as_xyz
  1  'x, y, z'
loop_
 _atom_site_type_symbol
 _atom_site_label
 _atom_site_symmetry_multiplicity
 _atom_site_fract_x
 _atom_site_fract_y
 _atom_site_fract_z
 _atom_site_occupancy
  Ba  Ba0  1  0.63670500  0.71833900  0.75000000  1
  Ba  Ba1  1  0.91836600  0.63670500  0.25000000  1
  Ba  Ba2  1  0.71833900  0.08163400  0.25000000  1
  Ba  Ba3  1  0.28166100  0.91836600  0.75000000  1
  Ba  Ba4  1  0.08163400  0.36329500  0.75000000  1
  Ba  Ba5  1  0.36329500  0.28166100  0.25000000  1
  Mn  Mn6  1  0.33333300  0.66666700  0.25000000  1
  Mn  Mn7  1  0.66666700  0.33333300  0.75000000  1
  N  N8  1  0.86624100  0.54926600  0.75000000  1
  N  N9  1  0.31697500  0.86624100  0.25000000  1
  N  N10  1  0.54926600  0.68302500  0.25000000  1
  N  N11  1  0.45073400  0.31697500  0.75000000  1
  N  N12  1  0.68302500  0.13375900  0.75000000  1
  N  N13  1  0.13375900  0.45073400  0.25000000  1
