# generated using pymatgen
data_LiGe
_symmetry_space_group_name_H-M   'P 1'
_cell_length_a   7.54633837
_cell_length_b   7.54633837
_cell_length_c   7.54633837
_cell_angle_alpha   98.44087475
_cell_angle_beta   98.44087475
_cell_angle_gamma   134.94458262
_symmetry_Int_Tables_number   1
_chemical_formula_structural   LiGe
_chemical_formula_sum   'Li8 Ge8'
_cell_volume   280.95823496
_cell_formula_units_Z   8
loop_
 _symmetry_equiv_pos_site_id
 _symmetry_equiv_pos_as_xyz
  1  'x, y, z'
loop_
 _atom_site_type_symbol
 _atom_site_label
 _atom_site_symmetry_multiplicity
 _atom_site_fract_x
 _atom_site_fract_y
 _atom_site_fract_z
 _atom_site_occupancy
  Li  Li0  1  0.43598300  0.21962300  0.05647600  1
  Li  Li1  1  0.46962300  0.91314700  0.28364000  1
  Li  Li2  1  0.62950700  0.18598300  0.71636000  1
  Li  Li3  1  0.16314700  0.37950700  0.94352400  1
  Li  Li4  1  0.81401700  0.53037700  0.44352400  1
  Li  Li5  1  0.78037700  0.83685300  0.21636000  1
  Li  Li6  1  0.62049300  0.56401700  0.78364000  1
  Li  Li7  1  0.08685300  0.37049300  0.55647600  1
  Ge  Ge8  1  0.96218800  0.65795000  0.09090400  1
  Ge  Ge9  1  0.90795000  0.31704700  0.19576200  1
  Ge  Ge10  1  0.12128500  0.71218800  0.80423800  1
  Ge  Ge11  1  0.56704700  0.87128500  0.90909600  1
  Ge  Ge12  1  0.28781200  0.09205000  0.40909600  1
  Ge  Ge13  1  0.34205000  0.43295300  0.30423800  1
  Ge  Ge14  1  0.12871500  0.03781200  0.69576200  1
  Ge  Ge15  1  0.68295300  0.87871500  0.59090400  1
