# generated using pymatgen
data_ErF3
_symmetry_space_group_name_H-M   'P 1'
_cell_length_a   4.73956900
_cell_length_b   6.13361800
_cell_length_c   6.85195200
_cell_angle_alpha   90.00000000
_cell_angle_beta   90.00000000
_cell_angle_gamma   90.00000000
_symmetry_Int_Tables_number   1
_chemical_formula_structural   ErF3
_chemical_formula_sum   'Er4 F12'
_cell_volume   199.19108027
_cell_formula_units_Z   4
loop_
 _symmetry_equiv_pos_site_id
 _symmetry_equiv_pos_as_xyz
  1  'x, y, z'
loop_
 _atom_site_type_symbol
 _atom_site_label
 _atom_site_symmetry_multiplicity
 _atom_site_fract_x
 _atom_site_fract_y
 _atom_site_fract_z
 _atom_site_occupancy
  Er  Er0  1  0.96094700  0.63529600  0.75000000  1
  Er  Er1  1  0.46094700  0.86470400  0.25000000  1
  Er  Er2  1  0.53905300  0.13529600  0.75000000  1
  Er  Er3  1  0.03905300  0.36470400  0.25000000  1
  F  F4  1  0.34879500  0.16132500  0.43629800  1
  F  F5  1  0.84879500  0.33867500  0.56370200  1
  F  F6  1  0.15120500  0.66132500  0.06370200  1
  F  F7  1  0.65120500  0.83867500  0.93629800  1
  F  F8  1  0.63089300  0.53545600  0.25000000  1
  F  F9  1  0.13089300  0.96454400  0.75000000  1
  F  F10  1  0.86910700  0.03545600  0.25000000  1
  F  F11  1  0.36910700  0.46454400  0.75000000  1
  F  F12  1  0.34879500  0.16132500  0.06370200  1
  F  F13  1  0.84879500  0.33867500  0.93629800  1
  F  F14  1  0.15120500  0.66132500  0.43629800  1
  F  F15  1  0.65120500  0.83867500  0.56370200  1
