# generated using pymatgen
data_HfS3
_symmetry_space_group_name_H-M   'P 1'
_cell_length_a   3.61156700
_cell_length_b   5.14921000
_cell_length_c   9.70602794
_cell_angle_alpha   83.01174755
_cell_angle_beta   90.00000000
_cell_angle_gamma   90.00000000
_symmetry_Int_Tables_number   1
_chemical_formula_structural   HfS3
_chemical_formula_sum   'Hf2 S6'
_cell_volume   179.15933878
_cell_formula_units_Z   2
loop_
 _symmetry_equiv_pos_site_id
 _symmetry_equiv_pos_as_xyz
  1  'x, y, z'
loop_
 _atom_site_type_symbol
 _atom_site_label
 _atom_site_symmetry_multiplicity
 _atom_site_fract_x
 _atom_site_fract_y
 _atom_site_fract_z
 _atom_site_occupancy
  Hf  Hf0  1  0.25000000  0.71689400  0.64329100  1
  Hf  Hf1  1  0.75000000  0.28310600  0.35670900  1
  S  S2  1  0.25000000  0.11648700  0.19564000  1
  S  S3  1  0.75000000  0.88351300  0.80436000  1
  S  S4  1  0.75000000  0.76136600  0.45033300  1
  S  S5  1  0.25000000  0.23863400  0.54966700  1
  S  S6  1  0.75000000  0.47818600  0.80577300  1
  S  S7  1  0.25000000  0.52181400  0.19422700  1
