# generated using pymatgen
data_K2NaGaP2
_symmetry_space_group_name_H-M   'P 1'
_cell_length_a   8.65919980
_cell_length_b   8.65919980
_cell_length_c   8.65919980
_cell_angle_alpha   136.35550348
_cell_angle_beta   134.80179153
_cell_angle_gamma   64.64075505
_symmetry_Int_Tables_number   1
_chemical_formula_structural   K2NaGaP2
_chemical_formula_sum   'K4 Na2 Ga2 P4'
_cell_volume   313.51715755
_cell_formula_units_Z   2
loop_
 _symmetry_equiv_pos_site_id
 _symmetry_equiv_pos_as_xyz
  1  'x, y, z'
loop_
 _atom_site_type_symbol
 _atom_site_label
 _atom_site_symmetry_multiplicity
 _atom_site_fract_x
 _atom_site_fract_y
 _atom_site_fract_z
 _atom_site_occupancy
  K  K0  1  0.07208200  0.32535000  0.74673200  1
  K  K1  1  0.92791800  0.67465000  0.25326800  1
  K  K2  1  0.42138200  0.17465000  0.24673200  1
  K  K3  1  0.57861800  0.82535000  0.75326800  1
  Na  Na4  1  0.00000000  0.25000000  0.25000000  1
  Na  Na5  1  0.00000000  0.75000000  0.75000000  1
  Ga  Ga6  1  0.50000000  0.75000000  0.25000000  1
  Ga  Ga7  1  0.50000000  0.25000000  0.75000000  1
  P  P8  1  0.79095200  0.09192100  0.69903000  1
  P  P9  1  0.20904800  0.90807900  0.30097000  1
  P  P10  1  0.60710900  0.40807900  0.19903000  1
  P  P11  1  0.39289100  0.59192100  0.80097000  1
