# generated using pymatgen
data_Y2Si5Rh3
_symmetry_space_group_name_H-M   'P 1'
_cell_length_a   8.11473464
_cell_length_b   8.11473464
_cell_length_c   5.70973366
_cell_angle_alpha   71.06528573
_cell_angle_beta   71.06528573
_cell_angle_gamma   93.41938155
_symmetry_Int_Tables_number   1
_chemical_formula_structural   Y2Si5Rh3
_chemical_formula_sum   'Y4 Si10 Rh6'
_cell_volume   330.62585508
_cell_formula_units_Z   2
loop_
 _symmetry_equiv_pos_site_id
 _symmetry_equiv_pos_as_xyz
  1  'x, y, z'
loop_
 _atom_site_type_symbol
 _atom_site_label
 _atom_site_symmetry_multiplicity
 _atom_site_fract_x
 _atom_site_fract_y
 _atom_site_fract_z
 _atom_site_occupancy
  Y  Y0  1  0.86713400  0.59917900  0.76006500  1
  Y  Y1  1  0.13286600  0.40082100  0.23993500  1
  Y  Y2  1  0.40082100  0.13286600  0.73993500  1
  Y  Y3  1  0.59917900  0.86713400  0.26006500  1
  Si  Si4  1  0.77591100  0.22408900  0.75000000  1
  Si  Si5  1  0.22408900  0.77591100  0.25000000  1
  Si  Si6  1  0.51225600  0.48774400  0.75000000  1
  Si  Si7  1  0.48774400  0.51225600  0.25000000  1
  Si  Si8  1  0.21032000  0.78968000  0.75000000  1
  Si  Si9  1  0.78968000  0.21032000  0.25000000  1
  Si  Si10  1  0.26647200  0.05800200  0.33877400  1
  Si  Si11  1  0.73352800  0.94199800  0.66122600  1
  Si  Si12  1  0.94199800  0.73352800  0.16122600  1
  Si  Si13  1  0.05800200  0.26647200  0.83877400  1
  Rh  Rh14  1  0.53954900  0.26029300  0.12625400  1
  Rh  Rh15  1  0.73970700  0.46045100  0.37374600  1
  Rh  Rh16  1  0.46045100  0.73970700  0.87374600  1
  Rh  Rh17  1  0.26029300  0.53954900  0.62625400  1
  Rh  Rh18  1  0.99796200  0.00203800  0.25000000  1
  Rh  Rh19  1  0.00203800  0.99796200  0.75000000  1
