# generated using pymatgen
data_RbGaH2
_symmetry_space_group_name_H-M   'P 1'
_cell_length_a   4.54262000
_cell_length_b   7.48167300
_cell_length_c   9.52956200
_cell_angle_alpha   90.00000000
_cell_angle_beta   90.00000000
_cell_angle_gamma   90.00000000
_symmetry_Int_Tables_number   1
_chemical_formula_structural   RbGaH2
_chemical_formula_sum   'Rb4 Ga4 H8'
_cell_volume   323.87548121
_cell_formula_units_Z   4
loop_
 _symmetry_equiv_pos_site_id
 _symmetry_equiv_pos_as_xyz
  1  'x, y, z'
loop_
 _atom_site_type_symbol
 _atom_site_label
 _atom_site_symmetry_multiplicity
 _atom_site_fract_x
 _atom_site_fract_y
 _atom_site_fract_z
 _atom_site_occupancy
  Rb  Rb0  1  0.75000000  0.38119200  0.67341300  1
  Rb  Rb1  1  0.75000000  0.88119200  0.82658700  1
  Rb  Rb2  1  0.25000000  0.11880800  0.17341300  1
  Rb  Rb3  1  0.25000000  0.61880800  0.32658700  1
  Ga  Ga4  1  0.25000000  0.06435700  0.53445600  1
  Ga  Ga5  1  0.25000000  0.56435700  0.96554400  1
  Ga  Ga6  1  0.75000000  0.43564300  0.03445600  1
  Ga  Ga7  1  0.75000000  0.93564300  0.46554400  1
  H  H8  1  0.75000000  0.72043500  0.51846700  1
  H  H9  1  0.25000000  0.10374200  0.70685200  1
  H  H10  1  0.25000000  0.60374200  0.79314800  1
  H  H11  1  0.75000000  0.22043500  0.98153300  1
  H  H12  1  0.25000000  0.77956500  0.01846700  1
  H  H13  1  0.75000000  0.39625800  0.20685200  1
  H  H14  1  0.75000000  0.89625800  0.29314800  1
  H  H15  1  0.25000000  0.27956500  0.48153300  1
