# generated using pymatgen
data_LiAsO3
_symmetry_space_group_name_H-M   'P 1'
_cell_length_a   5.59387119
_cell_length_b   5.59387119
_cell_length_c   5.59387077
_cell_angle_alpha   51.93151081
_cell_angle_beta   51.93151081
_cell_angle_gamma   51.93150381
_symmetry_Int_Tables_number   1
_chemical_formula_structural   LiAsO3
_chemical_formula_sum   'Li2 As2 O6'
_cell_volume   100.28833751
_cell_formula_units_Z   2
loop_
 _symmetry_equiv_pos_site_id
 _symmetry_equiv_pos_as_xyz
  1  'x, y, z'
loop_
 _atom_site_type_symbol
 _atom_site_label
 _atom_site_symmetry_multiplicity
 _atom_site_fract_x
 _atom_site_fract_y
 _atom_site_fract_z
 _atom_site_occupancy
  Li  Li0  1  0.13330800  0.13330800  0.13330800  1
  Li  Li1  1  0.86669200  0.86669200  0.86669200  1
  As  As2  1  0.33852000  0.33852000  0.33852000  1
  As  As3  1  0.66148000  0.66148000  0.66148000  1
  O  O4  1  0.93566700  0.29664500  0.54945600  1
  O  O5  1  0.54945600  0.93566700  0.29664500  1
  O  O6  1  0.70335500  0.45054400  0.06433300  1
  O  O7  1  0.06433300  0.70335500  0.45054400  1
  O  O8  1  0.45054400  0.06433300  0.70335500  1
  O  O9  1  0.29664500  0.54945600  0.93566700  1
