# generated using pymatgen
data_Rb2CoP4(HO2)8
_symmetry_space_group_name_H-M   'P 1'
_cell_length_a   7.44631968
_cell_length_b   8.69172519
_cell_length_c   12.20907659
_cell_angle_alpha   83.87001998
_cell_angle_beta   84.16747988
_cell_angle_gamma   84.34851173
_symmetry_Int_Tables_number   1
_chemical_formula_structural   Rb2CoP4(HO2)8
_chemical_formula_sum   'Rb4 Co2 P8 H16 O32'
_cell_volume   778.52969923
_cell_formula_units_Z   2
loop_
 _symmetry_equiv_pos_site_id
 _symmetry_equiv_pos_as_xyz
  1  'x, y, z'
loop_
 _atom_site_type_symbol
 _atom_site_label
 _atom_site_symmetry_multiplicity
 _atom_site_fract_x
 _atom_site_fract_y
 _atom_site_fract_z
 _atom_site_occupancy
  Rb  Rb0  1  0.71037100  0.10040100  0.69101300  1
  Rb  Rb1  1  0.71045100  0.60040600  0.19098600  1
  Rb  Rb2  1  0.28962900  0.89960300  0.30898500  1
  Rb  Rb3  1  0.28955100  0.39959300  0.80901500  1
  Co  Co4  1  0.50000200  0.99999900  0.99999900  1
  Co  Co5  1  0.50000200  0.50000000  0.49999800  1
  P  P6  1  0.25566100  0.93688800  0.79594700  1
  P  P7  1  0.25558600  0.43690700  0.29588200  1
  P  P8  1  0.74433900  0.06311200  0.20405200  1
  P  P9  1  0.74441100  0.56309500  0.70411800  1
  P  P10  1  0.20739600  0.23804000  0.50525200  1
  P  P11  1  0.20745100  0.73806400  0.00527200  1
  P  P12  1  0.79260600  0.76196200  0.49474900  1
  P  P13  1  0.79254900  0.26193600  0.99472800  1
  H  H14  1  0.02599600  0.09346300  0.86203500  1
  H  H15  1  0.02598800  0.59347600  0.36201100  1
  H  H16  1  0.97400500  0.90653700  0.13796500  1
  H  H17  1  0.97401000  0.40652500  0.63799200  1
  H  H18  1  0.70145200  0.27300000  0.38701200  1
  H  H19  1  0.70153300  0.77306900  0.88704100  1
  H  H20  1  0.29855200  0.72699600  0.61298900  1
  H  H21  1  0.29846900  0.22692900  0.11295900  1
  H  H22  1  0.26125400  0.99435500  0.58364300  1
  H  H23  1  0.26126500  0.49434200  0.08363600  1
  H  H24  1  0.73874800  0.00564500  0.41635800  1
  H  H25  1  0.73873300  0.50565900  0.91636600  1
  H  H26  1  0.83178300  0.34175500  0.46329600  1
  H  H27  1  0.83179600  0.84192700  0.96329400  1
  H  H28  1  0.16821900  0.65824200  0.53670400  1
  H  H29  1  0.16820400  0.15807200  0.03670400  1
  O  O30  1  0.71768200  0.36395200  0.42657600  1
  O  O31  1  0.71768600  0.86401600  0.92661700  1
  O  O32  1  0.28232200  0.63604100  0.57342400  1
  O  O33  1  0.28231800  0.13597900  0.07338100  1
  O  O34  1  0.06144200  0.02856700  0.79524600  1
  O  O35  1  0.06135200  0.52856900  0.29524100  1
  O  O36  1  0.93855900  0.97143400  0.20475300  1
  O  O37  1  0.93864400  0.47143100  0.70476100  1
  O  O38  1  0.31427000  0.89144600  0.68038900  1
  O  O39  1  0.31407700  0.39135000  0.18035600  1
  O  O40  1  0.68573100  0.10855100  0.31961100  1
  O  O41  1  0.68591900  0.60865300  0.81964400  1
  O  O42  1  0.38389100  0.02832600  0.84662200  1
  O  O43  1  0.38390000  0.52837000  0.34645500  1
  O  O44  1  0.61611000  0.97167400  0.15337800  1
  O  O45  1  0.61609900  0.47163300  0.65354400  1
  O  O46  1  0.23000200  0.27356500  0.37079500  1
  O  O47  1  0.23004800  0.77353500  0.87080000  1
  O  O48  1  0.77000000  0.72643500  0.62920500  1
  O  O49  1  0.76994900  0.22646500  0.12920000  1
  O  O50  1  0.01642700  0.30128500  0.54582700  1
  O  O51  1  0.01647200  0.80134900  0.04580400  1
  O  O52  1  0.98357300  0.69871600  0.45417300  1
  O  O53  1  0.98352800  0.19865200  0.95419700  1
  O  O54  1  0.22499600  0.05588600  0.50979900  1
  O  O55  1  0.22508800  0.55593600  0.00982900  1
  O  O56  1  0.77500700  0.94411400  0.49020100  1
  O  O57  1  0.77491100  0.44406400  0.99017000  1
  O  O58  1  0.36011500  0.29891600  0.55633700  1
  O  O59  1  0.36018500  0.79893800  0.05633100  1
  O  O60  1  0.63988600  0.70108700  0.44366300  1
  O  O61  1  0.63981800  0.20106200  0.94366800  1
