# generated using pymatgen
data_Na3AlTe3
_symmetry_space_group_name_H-M   'P 1'
_cell_length_a   7.83541300
_cell_length_b   8.12863300
_cell_length_c   16.32001401
_cell_angle_alpha   60.42501125
_cell_angle_beta   90.00000000
_cell_angle_gamma   90.00000000
_symmetry_Int_Tables_number   1
_chemical_formula_structural   Na3AlTe3
_chemical_formula_sum   'Na12 Al4 Te12'
_cell_volume   904.01291034
_cell_formula_units_Z   4
loop_
 _symmetry_equiv_pos_site_id
 _symmetry_equiv_pos_as_xyz
  1  'x, y, z'
loop_
 _atom_site_type_symbol
 _atom_site_label
 _atom_site_symmetry_multiplicity
 _atom_site_fract_x
 _atom_site_fract_y
 _atom_site_fract_z
 _atom_site_occupancy
  Na  Na0  1  0.02008400  0.94631700  0.27864800  1
  Na  Na1  1  0.52008400  0.05368300  0.22135200  1
  Na  Na2  1  0.97991600  0.05368300  0.72135200  1
  Na  Na3  1  0.47991600  0.94631700  0.77864800  1
  Na  Na4  1  0.00254200  0.72341400  0.10398200  1
  Na  Na5  1  0.50254200  0.27658600  0.39601800  1
  Na  Na6  1  0.99745800  0.27658600  0.89601800  1
  Na  Na7  1  0.49745800  0.72341400  0.60398200  1
  Na  Na8  1  0.00087200  0.31742300  0.39833000  1
  Na  Na9  1  0.50087200  0.68257700  0.10167000  1
  Na  Na10  1  0.99912800  0.68257700  0.60167000  1
  Na  Na11  1  0.49912800  0.31742300  0.89833000  1
  Al  Al12  1  0.64053800  0.66457300  0.41814200  1
  Al  Al13  1  0.14053800  0.33542700  0.08185800  1
  Al  Al14  1  0.35946200  0.33542700  0.58185800  1
  Al  Al15  1  0.85946200  0.66457300  0.91814200  1
  Te  Te16  1  0.79721600  0.34253500  0.07484900  1
  Te  Te17  1  0.29721600  0.65746500  0.42515100  1
  Te  Te18  1  0.20278400  0.65746500  0.92515100  1
  Te  Te19  1  0.70278400  0.34253500  0.57484900  1
  Te  Te20  1  0.24392500  0.34441100  0.23120700  1
  Te  Te21  1  0.74392500  0.65558900  0.26879300  1
  Te  Te22  1  0.75607500  0.65558900  0.76879300  1
  Te  Te23  1  0.25607500  0.34441100  0.73120700  1
  Te  Te24  1  0.75929100  0.95499400  0.42628400  1
  Te  Te25  1  0.25929100  0.04500600  0.07371600  1
  Te  Te26  1  0.24070900  0.04500600  0.57371600  1
  Te  Te27  1  0.74070900  0.95499400  0.92628400  1
