# generated using pymatgen
data_ThCoC2
_symmetry_space_group_name_H-M   'P 1'
_cell_length_a   3.79813969
_cell_length_b   3.79813969
_cell_length_c   3.82461300
_cell_angle_alpha   90.00000000
_cell_angle_beta   90.00000000
_cell_angle_gamma   106.21572744
_symmetry_Int_Tables_number   1
_chemical_formula_structural   ThCoC2
_chemical_formula_sum   'Th1 Co1 C2'
_cell_volume   52.97839341
_cell_formula_units_Z   1
loop_
 _symmetry_equiv_pos_site_id
 _symmetry_equiv_pos_as_xyz
  1  'x, y, z'
loop_
 _atom_site_type_symbol
 _atom_site_label
 _atom_site_symmetry_multiplicity
 _atom_site_fract_x
 _atom_site_fract_y
 _atom_site_fract_z
 _atom_site_occupancy
  Th  Th0  1  0.99975300  0.00024700  0.00000000  1
  Co  Co1  1  0.60843300  0.39156700  0.50000000  1
  C  C2  1  0.45845700  0.85164300  0.50000000  1
  C  C3  1  0.14835700  0.54154300  0.50000000  1
