# generated using pymatgen
data_PuCoC2
_symmetry_space_group_name_H-M   'P 1'
_cell_length_a   3.74748992
_cell_length_b   3.74748992
_cell_length_c   3.63160300
_cell_angle_alpha   90.00000000
_cell_angle_beta   90.00000000
_cell_angle_gamma   105.81000047
_symmetry_Int_Tables_number   1
_chemical_formula_structural   PuCoC2
_chemical_formula_sum   'Pu1 Co1 C2'
_cell_volume   49.07172561
_cell_formula_units_Z   1
loop_
 _symmetry_equiv_pos_site_id
 _symmetry_equiv_pos_as_xyz
  1  'x, y, z'
loop_
 _atom_site_type_symbol
 _atom_site_label
 _atom_site_symmetry_multiplicity
 _atom_site_fract_x
 _atom_site_fract_y
 _atom_site_fract_z
 _atom_site_occupancy
  Pu  Pu0  1  0.99842900  0.00157100  0.00000000  1
  Co  Co1  1  0.61051200  0.38948800  0.50000000  1
  C  C2  1  0.45743000  0.85137100  0.50000000  1
  C  C3  1  0.14862900  0.54257000  0.50000000  1
