# generated using pymatgen
data_YbAl2Cu
_symmetry_space_group_name_H-M   'P 1'
_cell_length_a   9.12677278
_cell_length_b   9.12677278
_cell_length_c   9.12677348
_cell_angle_alpha   34.78940754
_cell_angle_beta   34.78940754
_cell_angle_gamma   34.78940349
_symmetry_Int_Tables_number   1
_chemical_formula_structural   YbAl2Cu
_chemical_formula_sum   'Yb3 Al6 Cu3'
_cell_volume   220.89943695
_cell_formula_units_Z   3
loop_
 _symmetry_equiv_pos_site_id
 _symmetry_equiv_pos_as_xyz
  1  'x, y, z'
loop_
 _atom_site_type_symbol
 _atom_site_label
 _atom_site_symmetry_multiplicity
 _atom_site_fract_x
 _atom_site_fract_y
 _atom_site_fract_z
 _atom_site_occupancy
  Yb  Yb0  1  0.00000000  0.00000000  0.00000000  1
  Yb  Yb1  1  0.14484200  0.14484200  0.14484200  1
  Yb  Yb2  1  0.85515800  0.85515800  0.85515800  1
  Al  Al3  1  0.07865900  0.57975600  0.57975600  1
  Al  Al4  1  0.57975600  0.07865900  0.57975600  1
  Al  Al5  1  0.57975600  0.57975600  0.07865900  1
  Al  Al6  1  0.42024400  0.42024400  0.92134100  1
  Al  Al7  1  0.42024400  0.92134100  0.42024400  1
  Al  Al8  1  0.92134100  0.42024400  0.42024400  1
  Cu  Cu9  1  0.33459200  0.33459200  0.33459200  1
  Cu  Cu10  1  0.50000000  0.50000000  0.50000000  1
  Cu  Cu11  1  0.66540800  0.66540800  0.66540800  1
