# generated using pymatgen
data_BaAs2Pd
_symmetry_space_group_name_H-M   'P 1'
_cell_length_a   9.07464377
_cell_length_b   9.07464377
_cell_length_c   4.64309700
_cell_angle_alpha   90.00000000
_cell_angle_beta   90.00000000
_cell_angle_gamma   149.60920416
_symmetry_Int_Tables_number   1
_chemical_formula_structural   BaAs2Pd
_chemical_formula_sum   'Ba2 As4 Pd2'
_cell_volume   193.43162827
_cell_formula_units_Z   2
loop_
 _symmetry_equiv_pos_site_id
 _symmetry_equiv_pos_as_xyz
  1  'x, y, z'
loop_
 _atom_site_type_symbol
 _atom_site_label
 _atom_site_symmetry_multiplicity
 _atom_site_fract_x
 _atom_site_fract_y
 _atom_site_fract_z
 _atom_site_occupancy
  Ba  Ba0  1  0.39440800  0.60559200  0.25000000  1
  Ba  Ba1  1  0.60559200  0.39440800  0.75000000  1
  As  As2  1  0.03753900  0.96246100  0.25000000  1
  As  As3  1  0.96246100  0.03753900  0.75000000  1
  As  As4  1  0.25026300  0.74973700  0.75000000  1
  As  As5  1  0.74973700  0.25026300  0.25000000  1
  Pd  Pd6  1  0.81390000  0.18610000  0.75000000  1
  Pd  Pd7  1  0.18610000  0.81390000  0.25000000  1
