# generated using pymatgen
data_CaSn4(PO4)6
_symmetry_space_group_name_H-M   'P 1'
_cell_length_a   9.14606012
_cell_length_b   9.14606012
_cell_length_c   9.14605984
_cell_angle_alpha   54.81709321
_cell_angle_beta   54.81709321
_cell_angle_gamma   54.81709200
_symmetry_Int_Tables_number   1
_chemical_formula_structural   CaSn4(PO4)6
_chemical_formula_sum   'Ca1 Sn4 P6 O24'
_cell_volume   475.70097143
_cell_formula_units_Z   1
loop_
 _symmetry_equiv_pos_site_id
 _symmetry_equiv_pos_as_xyz
  1  'x, y, z'
loop_
 _atom_site_type_symbol
 _atom_site_label
 _atom_site_symmetry_multiplicity
 _atom_site_fract_x
 _atom_site_fract_y
 _atom_site_fract_z
 _atom_site_occupancy
  Ca  Ca0  1  0.00000000  0.00000000  0.00000000  1
  Sn  Sn1  1  0.65082400  0.65082400  0.65082400  1
  Sn  Sn2  1  0.34917600  0.34917600  0.34917600  1
  Sn  Sn3  1  0.85216600  0.85216600  0.85216600  1
  Sn  Sn4  1  0.14783400  0.14783400  0.14783400  1
  P  P5  1  0.96200200  0.24927100  0.54312000  1
  P  P6  1  0.54312000  0.96200200  0.24927100  1
  P  P7  1  0.24927100  0.54312000  0.96200200  1
  P  P8  1  0.03799800  0.75072900  0.45688000  1
  P  P9  1  0.45688000  0.03799800  0.75072900  1
  P  P10  1  0.75072900  0.45688000  0.03799800  1
  O  O11  1  0.98403200  0.19955600  0.39561700  1
  O  O12  1  0.39561700  0.98403200  0.19955600  1
  O  O13  1  0.19955600  0.39561700  0.98403200  1
  O  O14  1  0.01596800  0.80044400  0.60438300  1
  O  O15  1  0.60438300  0.01596800  0.80044400  1
  O  O16  1  0.80044400  0.60438300  0.01596800  1
  O  O17  1  0.15812400  0.20617600  0.53290500  1
  O  O18  1  0.53290500  0.15812400  0.20617600  1
  O  O19  1  0.20617600  0.53290500  0.15812400  1
  O  O20  1  0.84187600  0.79382400  0.46709500  1
  O  O21  1  0.46709500  0.84187600  0.79382400  1
  O  O22  1  0.79382400  0.46709500  0.84187600  1
  O  O23  1  0.82709200  0.45984600  0.51356500  1
  O  O24  1  0.51356500  0.82709200  0.45984600  1
  O  O25  1  0.45984600  0.51356500  0.82709200  1
  O  O26  1  0.17290800  0.54015400  0.48643500  1
  O  O27  1  0.48643500  0.17290800  0.54015400  1
  O  O28  1  0.54015400  0.48643500  0.17290800  1
  O  O29  1  0.87681900  0.11291000  0.75120900  1
  O  O30  1  0.75120900  0.87681900  0.11291000  1
  O  O31  1  0.11291000  0.75120900  0.87681900  1
  O  O32  1  0.12318100  0.88709000  0.24879100  1
  O  O33  1  0.24879100  0.12318100  0.88709000  1
  O  O34  1  0.88709000  0.24879100  0.12318100  1
