# generated using pymatgen
data_TmMn12
_symmetry_space_group_name_H-M   'P 1'
_cell_length_a   6.30536696
_cell_length_b   6.30536696
_cell_length_c   6.30536696
_cell_angle_alpha   97.73026313
_cell_angle_beta   97.73026313
_cell_angle_gamma   136.96868190
_symmetry_Int_Tables_number   1
_chemical_formula_structural   TmMn12
_chemical_formula_sum   'Tm1 Mn12'
_cell_volume   159.14756073
_cell_formula_units_Z   1
loop_
 _symmetry_equiv_pos_site_id
 _symmetry_equiv_pos_as_xyz
  1  'x, y, z'
loop_
 _atom_site_type_symbol
 _atom_site_label
 _atom_site_symmetry_multiplicity
 _atom_site_fract_x
 _atom_site_fract_y
 _atom_site_fract_z
 _atom_site_occupancy
  Tm  Tm0  1  0.00000000  0.00000000  0.00000000  1
  Mn  Mn1  1  0.50000000  0.50000000  0.50000000  1
  Mn  Mn2  1  0.00000000  0.00000000  0.50000000  1
  Mn  Mn3  1  0.00000000  0.50000000  0.00000000  1
  Mn  Mn4  1  0.50000000  0.00000000  0.00000000  1
  Mn  Mn5  1  0.36157300  0.00000000  0.36157300  1
  Mn  Mn6  1  0.63842700  0.00000000  0.63842700  1
  Mn  Mn7  1  0.00000000  0.63842700  0.63842700  1
  Mn  Mn8  1  0.00000000  0.36157300  0.36157300  1
  Mn  Mn9  1  0.27388000  0.50000000  0.77388000  1
  Mn  Mn10  1  0.72612000  0.50000000  0.22612000  1
  Mn  Mn11  1  0.50000000  0.72612000  0.22612000  1
  Mn  Mn12  1  0.50000000  0.27388000  0.77388000  1
