# generated using pymatgen
data_YbP5
_symmetry_space_group_name_H-M   'P 1'
_cell_length_a   9.67122500
_cell_length_b   4.71530900
_cell_length_c   5.48618410
_cell_angle_alpha   74.31740945
_cell_angle_beta   90.00000000
_cell_angle_gamma   90.00000000
_symmetry_Int_Tables_number   1
_chemical_formula_structural   YbP5
_chemical_formula_sum   'Yb2 P10'
_cell_volume   240.87201292
_cell_formula_units_Z   2
loop_
 _symmetry_equiv_pos_site_id
 _symmetry_equiv_pos_as_xyz
  1  'x, y, z'
loop_
 _atom_site_type_symbol
 _atom_site_label
 _atom_site_symmetry_multiplicity
 _atom_site_fract_x
 _atom_site_fract_y
 _atom_site_fract_z
 _atom_site_occupancy
  Yb  Yb0  1  0.25000000  0.92984100  0.38039500  1
  Yb  Yb1  1  0.75000000  0.07015900  0.61960500  1
  P  P2  1  0.25000000  0.72348500  0.92512300  1
  P  P3  1  0.75000000  0.27651500  0.07487700  1
  P  P4  1  0.40735600  0.37248700  0.97385400  1
  P  P5  1  0.90735600  0.62751300  0.02614600  1
  P  P6  1  0.59264400  0.62751300  0.02614600  1
  P  P7  1  0.09264400  0.37248700  0.97385400  1
  P  P8  1  0.44005200  0.30910800  0.59102400  1
  P  P9  1  0.94005200  0.69089200  0.40897600  1
  P  P10  1  0.55994800  0.69089200  0.40897600  1
  P  P11  1  0.05994800  0.30910800  0.59102400  1
