# generated using pymatgen
data_Lu(AlC)3
_symmetry_space_group_name_H-M   'P 1'
_cell_length_a   3.40357129
_cell_length_b   3.40357129
_cell_length_c   17.13889700
_cell_angle_alpha   90.00000000
_cell_angle_beta   90.00000000
_cell_angle_gamma   119.99998627
_symmetry_Int_Tables_number   1
_chemical_formula_structural   Lu(AlC)3
_chemical_formula_sum   'Lu2 Al6 C6'
_cell_volume   171.94251099
_cell_formula_units_Z   2
loop_
 _symmetry_equiv_pos_site_id
 _symmetry_equiv_pos_as_xyz
  1  'x, y, z'
loop_
 _atom_site_type_symbol
 _atom_site_label
 _atom_site_symmetry_multiplicity
 _atom_site_fract_x
 _atom_site_fract_y
 _atom_site_fract_z
 _atom_site_occupancy
  Lu  Lu0  1  0.00000000  0.00000000  0.00000000  1
  Lu  Lu1  1  0.00000000  0.00000000  0.50000000  1
  Al  Al2  1  0.33333300  0.66666700  0.13205200  1
  Al  Al3  1  0.66666700  0.33333300  0.25000000  1
  Al  Al4  1  0.33333300  0.66666700  0.36794800  1
  Al  Al5  1  0.66666700  0.33333300  0.63205200  1
  Al  Al6  1  0.33333300  0.66666700  0.75000000  1
  Al  Al7  1  0.66666700  0.33333300  0.86794800  1
  C  C8  1  0.66666700  0.33333300  0.09026500  1
  C  C9  1  0.33333300  0.66666700  0.25000000  1
  C  C10  1  0.66666700  0.33333300  0.40973500  1
  C  C11  1  0.33333300  0.66666700  0.59026500  1
  C  C12  1  0.66666700  0.33333300  0.75000000  1
  C  C13  1  0.33333300  0.66666700  0.90973500  1
