# generated using pymatgen
data_Lu2Mo2C3
_symmetry_space_group_name_H-M   'P 1'
_cell_length_a   5.87162253
_cell_length_b   5.87162253
_cell_length_c   5.59872656
_cell_angle_alpha   71.64221372
_cell_angle_beta   71.64221372
_cell_angle_gamma   33.07128967
_symmetry_Int_Tables_number   1
_chemical_formula_structural   Lu2Mo2C3
_chemical_formula_sum   'Lu2 Mo2 C3'
_cell_volume   99.48167150
_cell_formula_units_Z   1
loop_
 _symmetry_equiv_pos_site_id
 _symmetry_equiv_pos_as_xyz
  1  'x, y, z'
loop_
 _atom_site_type_symbol
 _atom_site_label
 _atom_site_symmetry_multiplicity
 _atom_site_fract_x
 _atom_site_fract_y
 _atom_site_fract_z
 _atom_site_occupancy
  Lu  Lu0  1  0.38395100  0.38395100  0.31764300  1
  Lu  Lu1  1  0.61604900  0.61604900  0.68235700  1
  Mo  Mo2  1  0.14758400  0.14758400  0.13395300  1
  Mo  Mo3  1  0.85241600  0.85241600  0.86604700  1
  C  C4  1  0.73144200  0.73144200  0.24715900  1
  C  C5  1  0.26855800  0.26855800  0.75284100  1
  C  C6  1  0.00000000  0.00000000  0.00000000  1
