# generated using pymatgen
data_SrAs3
_symmetry_space_group_name_H-M   'P 1'
_cell_length_a   6.22501780
_cell_length_b   6.22501780
_cell_length_c   5.95348871
_cell_angle_alpha   72.26345284
_cell_angle_beta   72.26345284
_cell_angle_gamma   76.97973302
_symmetry_Int_Tables_number   1
_chemical_formula_structural   SrAs3
_chemical_formula_sum   'Sr2 As6'
_cell_volume   207.04815040
_cell_formula_units_Z   2
loop_
 _symmetry_equiv_pos_site_id
 _symmetry_equiv_pos_as_xyz
  1  'x, y, z'
loop_
 _atom_site_type_symbol
 _atom_site_label
 _atom_site_symmetry_multiplicity
 _atom_site_fract_x
 _atom_site_fract_y
 _atom_site_fract_z
 _atom_site_occupancy
  Sr  Sr0  1  0.66461200  0.66461200  0.66778200  1
  Sr  Sr1  1  0.33538800  0.33538800  0.33221800  1
  As  As2  1  0.86950600  0.40686800  0.19526800  1
  As  As3  1  0.59313200  0.13049400  0.80473200  1
  As  As4  1  0.99487500  0.99487500  0.21486700  1
  As  As5  1  0.00512500  0.00512500  0.78513300  1
  As  As6  1  0.40686800  0.86950600  0.19526800  1
  As  As7  1  0.13049400  0.59313200  0.80473200  1
