# generated using pymatgen
data_NbInO4
_symmetry_space_group_name_H-M   'P 1'
_cell_length_a   5.89693400
_cell_length_b   4.92079300
_cell_length_c   5.22350546
_cell_angle_alpha   89.09648139
_cell_angle_beta   90.00000000
_cell_angle_gamma   90.00000000
_symmetry_Int_Tables_number   1
_chemical_formula_structural   NbInO4
_chemical_formula_sum   'Nb2 In2 O8'
_cell_volume   151.55470213
_cell_formula_units_Z   2
loop_
 _symmetry_equiv_pos_site_id
 _symmetry_equiv_pos_as_xyz
  1  'x, y, z'
loop_
 _atom_site_type_symbol
 _atom_site_label
 _atom_site_symmetry_multiplicity
 _atom_site_fract_x
 _atom_site_fract_y
 _atom_site_fract_z
 _atom_site_occupancy
  Nb  Nb0  1  0.17818300  0.00000000  0.75000000  1
  Nb  Nb1  1  0.82181700  0.00000000  0.25000000  1
  In  In2  1  0.68088300  0.50000000  0.75000000  1
  In  In3  1  0.31911700  0.50000000  0.25000000  1
  O  O4  1  0.61916100  0.73973100  0.40175500  1
  O  O5  1  0.61916100  0.26026900  0.09824500  1
  O  O6  1  0.38083900  0.26026900  0.59824500  1
  O  O7  1  0.38083900  0.73973100  0.90175500  1
  O  O8  1  0.10303300  0.78561400  0.43730500  1
  O  O9  1  0.10303300  0.21438600  0.06269500  1
  O  O10  1  0.89696700  0.21438600  0.56269500  1
  O  O11  1  0.89696700  0.78561400  0.93730500  1
