# generated using pymatgen
data_TlGeBr3
_symmetry_space_group_name_H-M   'P 1'
_cell_length_a   4.22387600
_cell_length_b   9.76670500
_cell_length_c   15.61516800
_cell_angle_alpha   90.00000000
_cell_angle_beta   90.00000000
_cell_angle_gamma   90.00000000
_symmetry_Int_Tables_number   1
_chemical_formula_structural   TlGeBr3
_chemical_formula_sum   'Tl4 Ge4 Br12'
_cell_volume   644.17800406
_cell_formula_units_Z   4
loop_
 _symmetry_equiv_pos_site_id
 _symmetry_equiv_pos_as_xyz
  1  'x, y, z'
loop_
 _atom_site_type_symbol
 _atom_site_label
 _atom_site_symmetry_multiplicity
 _atom_site_fract_x
 _atom_site_fract_y
 _atom_site_fract_z
 _atom_site_occupancy
  Tl  Tl0  1  0.75000000  0.56790700  0.17056700  1
  Tl  Tl1  1  0.25000000  0.43209300  0.82943300  1
  Tl  Tl2  1  0.75000000  0.06790700  0.32943300  1
  Tl  Tl3  1  0.25000000  0.93209300  0.67056700  1
  Ge  Ge4  1  0.25000000  0.66596900  0.43916400  1
  Ge  Ge5  1  0.75000000  0.33403100  0.56083600  1
  Ge  Ge6  1  0.25000000  0.16596900  0.06083600  1
  Ge  Ge7  1  0.75000000  0.83403100  0.93916400  1
  Br  Br8  1  0.75000000  0.83441800  0.50697900  1
  Br  Br9  1  0.25000000  0.16558200  0.49302100  1
  Br  Br10  1  0.75000000  0.33441800  0.99302100  1
  Br  Br11  1  0.25000000  0.66558200  0.00697900  1
  Br  Br12  1  0.25000000  0.51189900  0.61386300  1
  Br  Br13  1  0.75000000  0.48810100  0.38613700  1
  Br  Br14  1  0.25000000  0.01189900  0.88613700  1
  Br  Br15  1  0.75000000  0.98810100  0.11386300  1
  Br  Br16  1  0.25000000  0.79440200  0.29072000  1
  Br  Br17  1  0.75000000  0.20559800  0.70928000  1
  Br  Br18  1  0.25000000  0.29440200  0.20928000  1
  Br  Br19  1  0.75000000  0.70559800  0.79072000  1
