# generated using pymatgen
data_Tl2Cr3O12
_symmetry_space_group_name_H-M   'P 1'
_cell_length_a   8.98157400
_cell_length_b   8.99359900
_cell_length_c   13.17270300
_cell_angle_alpha   90.00000000
_cell_angle_beta   90.00000000
_cell_angle_gamma   90.00000000
_symmetry_Int_Tables_number   1
_chemical_formula_structural   Tl2Cr3O12
_chemical_formula_sum   'Tl8 Cr12 O48'
_cell_volume   1064.04714838
_cell_formula_units_Z   4
loop_
 _symmetry_equiv_pos_site_id
 _symmetry_equiv_pos_as_xyz
  1  'x, y, z'
loop_
 _atom_site_type_symbol
 _atom_site_label
 _atom_site_symmetry_multiplicity
 _atom_site_fract_x
 _atom_site_fract_y
 _atom_site_fract_z
 _atom_site_occupancy
  Tl  Tl0  1  0.60273900  0.74625200  0.40737700  1
  Tl  Tl1  1  0.10273900  0.75374800  0.09262300  1
  Tl  Tl2  1  0.89726100  0.74625200  0.59262300  1
  Tl  Tl3  1  0.39726100  0.75374800  0.90737700  1
  Tl  Tl4  1  0.39726100  0.25374800  0.59262300  1
  Tl  Tl5  1  0.89726100  0.24625200  0.90737700  1
  Tl  Tl6  1  0.10273900  0.25374800  0.40737700  1
  Tl  Tl7  1  0.60273900  0.24625200  0.09262300  1
  Cr  Cr8  1  0.75000000  0.10232600  0.50000000  1
  Cr  Cr9  1  0.25000000  0.39767400  0.00000000  1
  Cr  Cr10  1  0.25000000  0.89767400  0.50000000  1
  Cr  Cr11  1  0.75000000  0.60232600  0.00000000  1
  Cr  Cr12  1  0.96634200  0.11440000  0.16864100  1
  Cr  Cr13  1  0.46634200  0.38560000  0.33135900  1
  Cr  Cr14  1  0.53365800  0.11440000  0.83135900  1
  Cr  Cr15  1  0.03365800  0.38560000  0.66864100  1
  Cr  Cr16  1  0.03365800  0.88560000  0.83135900  1
  Cr  Cr17  1  0.53365800  0.61440000  0.66864100  1
  Cr  Cr18  1  0.46634200  0.88560000  0.16864100  1
  Cr  Cr19  1  0.96634200  0.61440000  0.33135900  1
  O  O20  1  0.64792000  0.49546800  0.07540400  1
  O  O21  1  0.14792000  0.00453200  0.42459600  1
  O  O22  1  0.85208000  0.49546800  0.92459600  1
  O  O23  1  0.35208000  0.00453200  0.57540400  1
  O  O24  1  0.35208000  0.50453200  0.92459600  1
  O  O25  1  0.85208000  0.99546800  0.57540400  1
  O  O26  1  0.14792000  0.50453200  0.07540400  1
  O  O27  1  0.64792000  0.99546800  0.42459600  1
  O  O28  1  0.42130500  0.00247100  0.89780400  1
  O  O29  1  0.92130500  0.49752900  0.60219600  1
  O  O30  1  0.07869500  0.00247100  0.10219600  1
  O  O31  1  0.57869500  0.49752900  0.39780400  1
  O  O32  1  0.57869500  0.99752900  0.10219600  1
  O  O33  1  0.07869500  0.50247100  0.39780400  1
  O  O34  1  0.92130500  0.99752900  0.89780400  1
  O  O35  1  0.42130500  0.50247100  0.60219600  1
  O  O36  1  0.63945600  0.71265200  0.93054700  1
  O  O37  1  0.36054400  0.28734800  0.06945300  1
  O  O38  1  0.13945600  0.28734800  0.93054700  1
  O  O39  1  0.63945600  0.21265200  0.56945300  1
  O  O40  1  0.64424300  0.71738100  0.58350500  1
  O  O41  1  0.14424300  0.78261900  0.91649500  1
  O  O42  1  0.85575700  0.71738100  0.41649500  1
  O  O43  1  0.35575700  0.78261900  0.08350500  1
  O  O44  1  0.35575700  0.28261900  0.41649500  1
  O  O45  1  0.85575700  0.21738100  0.08350500  1
  O  O46  1  0.14424300  0.28261900  0.58350500  1
  O  O47  1  0.64424300  0.21738100  0.91649500  1
  O  O48  1  0.63903900  0.01793700  0.76020700  1
  O  O49  1  0.13903900  0.48206300  0.73979300  1
  O  O50  1  0.86096100  0.01793700  0.23979300  1
  O  O51  1  0.36096100  0.48206300  0.26020700  1
  O  O52  1  0.36096100  0.98206300  0.23979300  1
  O  O53  1  0.86096100  0.51793700  0.26020700  1
  O  O54  1  0.13903900  0.98206300  0.76020700  1
  O  O55  1  0.63903900  0.51793700  0.73979300  1
  O  O56  1  0.42827400  0.72857400  0.73961000  1
  O  O57  1  0.92827400  0.77142600  0.76039000  1
  O  O58  1  0.07172600  0.72857400  0.26039000  1
  O  O59  1  0.57172600  0.77142600  0.23961000  1
  O  O60  1  0.57172600  0.27142600  0.26039000  1
  O  O61  1  0.07172600  0.22857400  0.23961000  1
  O  O62  1  0.92827400  0.27142600  0.73961000  1
  O  O63  1  0.42827400  0.22857400  0.76039000  1
  O  O64  1  0.36054400  0.78734800  0.43054700  1
  O  O65  1  0.86054400  0.71265200  0.06945300  1
  O  O66  1  0.13945600  0.78734800  0.56945300  1
  O  O67  1  0.86054400  0.21265200  0.43054700  1
