# generated using pymatgen
data_Sc6Al16Ir7
_symmetry_space_group_name_H-M   'P 1'
_cell_length_a   8.75147879
_cell_length_b   8.75147879
_cell_length_c   8.75147879
_cell_angle_alpha   60.00000000
_cell_angle_beta   60.00000000
_cell_angle_gamma   60.00000000
_symmetry_Int_Tables_number   1
_chemical_formula_structural   Sc6Al16Ir7
_chemical_formula_sum   'Sc6 Al16 Ir7'
_cell_volume   473.94651736
_cell_formula_units_Z   1
loop_
 _symmetry_equiv_pos_site_id
 _symmetry_equiv_pos_as_xyz
  1  'x, y, z'
loop_
 _atom_site_type_symbol
 _atom_site_label
 _atom_site_symmetry_multiplicity
 _atom_site_fract_x
 _atom_site_fract_y
 _atom_site_fract_z
 _atom_site_occupancy
  Sc  Sc0  1  0.20619200  0.79380800  0.79380800  1
  Sc  Sc1  1  0.79380800  0.20619200  0.20619200  1
  Sc  Sc2  1  0.79380800  0.20619200  0.79380800  1
  Sc  Sc3  1  0.79380800  0.79380800  0.20619200  1
  Sc  Sc4  1  0.20619200  0.79380800  0.20619200  1
  Sc  Sc5  1  0.20619200  0.20619200  0.79380800  1
  Al  Al6  1  0.83487600  0.83487600  0.83487600  1
  Al  Al7  1  0.83487600  0.83487600  0.49537300  1
  Al  Al8  1  0.49537300  0.83487600  0.83487600  1
  Al  Al9  1  0.83487600  0.49537300  0.83487600  1
  Al  Al10  1  0.16512400  0.16512400  0.16512400  1
  Al  Al11  1  0.16512400  0.16512400  0.50462700  1
  Al  Al12  1  0.16512400  0.50462700  0.16512400  1
  Al  Al13  1  0.50462700  0.16512400  0.16512400  1
  Al  Al14  1  0.61996900  0.61996900  0.61996900  1
  Al  Al15  1  0.61996900  0.61996900  0.14009200  1
  Al  Al16  1  0.14009200  0.61996900  0.61996900  1
  Al  Al17  1  0.61996900  0.14009200  0.61996900  1
  Al  Al18  1  0.38003100  0.38003100  0.38003100  1
  Al  Al19  1  0.38003100  0.38003100  0.85990800  1
  Al  Al20  1  0.38003100  0.85990800  0.38003100  1
  Al  Al21  1  0.85990800  0.38003100  0.38003100  1
  Ir  Ir22  1  0.50000000  0.50000000  0.50000000  1
  Ir  Ir23  1  0.00000000  0.50000000  0.50000000  1
  Ir  Ir24  1  0.50000000  0.00000000  0.00000000  1
  Ir  Ir25  1  0.50000000  0.00000000  0.50000000  1
  Ir  Ir26  1  0.50000000  0.50000000  0.00000000  1
  Ir  Ir27  1  0.00000000  0.50000000  0.00000000  1
  Ir  Ir28  1  0.00000000  0.00000000  0.50000000  1
