# generated using pymatgen
data_LiErSn
_symmetry_space_group_name_H-M   'P 1'
_cell_length_a   9.34272595
_cell_length_b   9.34272595
_cell_length_c   7.25810500
_cell_angle_alpha   90.00000000
_cell_angle_beta   90.00000000
_cell_angle_gamma   119.99999965
_symmetry_Int_Tables_number   1
_chemical_formula_structural   LiErSn
_chemical_formula_sum   'Li8 Er8 Sn8'
_cell_volume   548.65722141
_cell_formula_units_Z   8
loop_
 _symmetry_equiv_pos_site_id
 _symmetry_equiv_pos_as_xyz
  1  'x, y, z'
loop_
 _atom_site_type_symbol
 _atom_site_label
 _atom_site_symmetry_multiplicity
 _atom_site_fract_x
 _atom_site_fract_y
 _atom_site_fract_z
 _atom_site_occupancy
  Li  Li0  1  0.16674600  0.33349200  0.21174600  1
  Li  Li1  1  0.16674600  0.83325400  0.21174600  1
  Li  Li2  1  0.66650800  0.83325400  0.21174600  1
  Li  Li3  1  0.66666700  0.33333300  0.33128400  1
  Li  Li4  1  0.83325400  0.66650800  0.71174600  1
  Li  Li5  1  0.33349200  0.16674600  0.71174600  1
  Li  Li6  1  0.83325400  0.16674600  0.71174600  1
  Li  Li7  1  0.33333300  0.66666700  0.83128400  1
  Er  Er8  1  0.00000000  0.00000000  0.99969900  1
  Er  Er9  1  0.51234000  0.02468000  0.00604000  1
  Er  Er10  1  0.51234000  0.48766000  0.00604000  1
  Er  Er11  1  0.97532000  0.48766000  0.00604000  1
  Er  Er12  1  0.00000000  0.00000000  0.49969900  1
  Er  Er13  1  0.48766000  0.97532000  0.50604000  1
  Er  Er14  1  0.02468000  0.51234000  0.50604000  1
  Er  Er15  1  0.48766000  0.51234000  0.50604000  1
  Sn  Sn16  1  0.33333300  0.66666700  0.23804700  1
  Sn  Sn17  1  0.83301000  0.66602100  0.26886800  1
  Sn  Sn18  1  0.33397900  0.16699000  0.26886800  1
  Sn  Sn19  1  0.83301000  0.16699000  0.26886800  1
  Sn  Sn20  1  0.66666700  0.33333300  0.73804700  1
  Sn  Sn21  1  0.16699000  0.33397900  0.76886800  1
  Sn  Sn22  1  0.16699000  0.83301000  0.76886800  1
  Sn  Sn23  1  0.66602100  0.83301000  0.76886800  1
