# generated using pymatgen
data_SrSiPt
_symmetry_space_group_name_H-M   'P 1'
_cell_length_a   6.55312300
_cell_length_b   6.55312300
_cell_length_c   6.55312300
_cell_angle_alpha   90.00000000
_cell_angle_beta   90.00000000
_cell_angle_gamma   90.00000000
_symmetry_Int_Tables_number   1
_chemical_formula_structural   SrSiPt
_chemical_formula_sum   'Sr4 Si4 Pt4'
_cell_volume   281.41352020
_cell_formula_units_Z   4
loop_
 _symmetry_equiv_pos_site_id
 _symmetry_equiv_pos_as_xyz
  1  'x, y, z'
loop_
 _atom_site_type_symbol
 _atom_site_label
 _atom_site_symmetry_multiplicity
 _atom_site_fract_x
 _atom_site_fract_y
 _atom_site_fract_z
 _atom_site_occupancy
  Sr  Sr0  1  0.13133800  0.13133800  0.13133800  1
  Sr  Sr1  1  0.86866200  0.63133800  0.36866200  1
  Sr  Sr2  1  0.36866200  0.86866200  0.63133800  1
  Sr  Sr3  1  0.63133800  0.36866200  0.86866200  1
  Si  Si4  1  0.33942600  0.66057400  0.16057400  1
  Si  Si5  1  0.66057400  0.16057400  0.33942600  1
  Si  Si6  1  0.16057400  0.33942600  0.66057400  1
  Si  Si7  1  0.83942600  0.83942600  0.83942600  1
  Pt  Pt8  1  0.58781300  0.91218700  0.08781300  1
  Pt  Pt9  1  0.41218700  0.41218700  0.41218700  1
  Pt  Pt10  1  0.91218700  0.08781300  0.58781300  1
  Pt  Pt11  1  0.08781300  0.58781300  0.91218700  1
