# generated using pymatgen
data_Sr2Sn
_symmetry_space_group_name_H-M   'P 1'
_cell_length_a   5.42553800
_cell_length_b   8.39692600
_cell_length_c   10.17450000
_cell_angle_alpha   90.00000000
_cell_angle_beta   90.00000000
_cell_angle_gamma   90.00000000
_symmetry_Int_Tables_number   1
_chemical_formula_structural   Sr2Sn
_chemical_formula_sum   'Sr8 Sn4'
_cell_volume   463.52825423
_cell_formula_units_Z   4
loop_
 _symmetry_equiv_pos_site_id
 _symmetry_equiv_pos_as_xyz
  1  'x, y, z'
loop_
 _atom_site_type_symbol
 _atom_site_label
 _atom_site_symmetry_multiplicity
 _atom_site_fract_x
 _atom_site_fract_y
 _atom_site_fract_z
 _atom_site_occupancy
  Sr  Sr0  1  0.25000000  0.97973800  0.31785600  1
  Sr  Sr1  1  0.75000000  0.02026200  0.68214400  1
  Sr  Sr2  1  0.25000000  0.47973800  0.18214400  1
  Sr  Sr3  1  0.75000000  0.52026200  0.81785600  1
  Sr  Sr4  1  0.75000000  0.65773100  0.42629500  1
  Sr  Sr5  1  0.25000000  0.34226900  0.57370500  1
  Sr  Sr6  1  0.75000000  0.15773100  0.07370500  1
  Sr  Sr7  1  0.25000000  0.84226900  0.92629500  1
  Sn  Sn8  1  0.25000000  0.25065600  0.89414200  1
  Sn  Sn9  1  0.75000000  0.74934400  0.10585800  1
  Sn  Sn10  1  0.25000000  0.75065600  0.60585800  1
  Sn  Sn11  1  0.75000000  0.24934400  0.39414200  1
