# generated using pymatgen
data_LuBrO
_symmetry_space_group_name_H-M   'P 1'
_cell_length_a   3.75009100
_cell_length_b   3.75009100
_cell_length_c   8.81103200
_cell_angle_alpha   90.00000000
_cell_angle_beta   90.00000000
_cell_angle_gamma   90.00000000
_symmetry_Int_Tables_number   1
_chemical_formula_structural   LuBrO
_chemical_formula_sum   'Lu2 Br2 O2'
_cell_volume   123.91115110
_cell_formula_units_Z   2
loop_
 _symmetry_equiv_pos_site_id
 _symmetry_equiv_pos_as_xyz
  1  'x, y, z'
loop_
 _atom_site_type_symbol
 _atom_site_label
 _atom_site_symmetry_multiplicity
 _atom_site_fract_x
 _atom_site_fract_y
 _atom_site_fract_z
 _atom_site_occupancy
  Lu  Lu0  1  0.00000000  0.50000000  0.37485300  1
  Lu  Lu1  1  0.50000000  0.00000000  0.62514700  1
  Br  Br2  1  0.50000000  0.00000000  0.18682800  1
  Br  Br3  1  0.00000000  0.50000000  0.81317200  1
  O  O4  1  0.00000000  0.00000000  0.50000000  1
  O  O5  1  0.50000000  0.50000000  0.50000000  1
