# generated using pymatgen
data_HoB4W
_symmetry_space_group_name_H-M   'P 1'
_cell_length_a   3.61903100
_cell_length_b   6.03174400
_cell_length_c   11.65355000
_cell_angle_alpha   90.00000000
_cell_angle_beta   90.00000000
_cell_angle_gamma   90.00000000
_symmetry_Int_Tables_number   1
_chemical_formula_structural   HoB4W
_chemical_formula_sum   'Ho4 B16 W4'
_cell_volume   254.38614145
_cell_formula_units_Z   4
loop_
 _symmetry_equiv_pos_site_id
 _symmetry_equiv_pos_as_xyz
  1  'x, y, z'
loop_
 _atom_site_type_symbol
 _atom_site_label
 _atom_site_symmetry_multiplicity
 _atom_site_fract_x
 _atom_site_fract_y
 _atom_site_fract_z
 _atom_site_occupancy
  Ho  Ho0  1  0.00000000  0.12711500  0.14959000  1
  Ho  Ho1  1  0.00000000  0.87288500  0.85041000  1
  Ho  Ho2  1  0.00000000  0.62711500  0.35041000  1
  Ho  Ho3  1  0.00000000  0.37288500  0.64959000  1
  B  B4  1  0.50000000  0.47684500  0.19355700  1
  B  B5  1  0.50000000  0.52315500  0.80644300  1
  B  B6  1  0.50000000  0.97684500  0.30644300  1
  B  B7  1  0.50000000  0.02315500  0.69355700  1
  B  B8  1  0.50000000  0.28779600  0.31337100  1
  B  B9  1  0.50000000  0.71220400  0.68662900  1
  B  B10  1  0.50000000  0.78779600  0.18662900  1
  B  B11  1  0.50000000  0.21220400  0.81337100  1
  B  B12  1  0.50000000  0.36679800  0.46792800  1
  B  B13  1  0.50000000  0.63320200  0.53207200  1
  B  B14  1  0.50000000  0.86679800  0.03207200  1
  B  B15  1  0.50000000  0.13320200  0.96792800  1
  B  B16  1  0.50000000  0.38583100  0.04752500  1
  B  B17  1  0.50000000  0.61416900  0.95247500  1
  B  B18  1  0.50000000  0.88583100  0.45247500  1
  B  B19  1  0.50000000  0.11416900  0.54752500  1
  W  W20  1  0.00000000  0.13112400  0.41538500  1
  W  W21  1  0.00000000  0.86887600  0.58461500  1
  W  W22  1  0.00000000  0.63112400  0.08461500  1
  W  W23  1  0.00000000  0.36887600  0.91538500  1
