# generated using pymatgen
data_Rb(SbSe2)2
_symmetry_space_group_name_H-M   'P 1'
_cell_length_a   6.89393000
_cell_length_b   7.10480024
_cell_length_c   9.70780849
_cell_angle_alpha   80.00891910
_cell_angle_beta   84.96405022
_cell_angle_gamma   75.35603184
_symmetry_Int_Tables_number   1
_chemical_formula_structural   Rb(SbSe2)2
_chemical_formula_sum   'Rb2 Sb4 Se8'
_cell_volume   452.58420555
_cell_formula_units_Z   2
loop_
 _symmetry_equiv_pos_site_id
 _symmetry_equiv_pos_as_xyz
  1  'x, y, z'
loop_
 _atom_site_type_symbol
 _atom_site_label
 _atom_site_symmetry_multiplicity
 _atom_site_fract_x
 _atom_site_fract_y
 _atom_site_fract_z
 _atom_site_occupancy
  Rb  Rb0  1  0.19216300  0.18127400  0.56729800  1
  Rb  Rb1  1  0.80783700  0.81872600  0.43270200  1
  Sb  Sb2  1  0.85112800  0.81194900  0.95780000  1
  Sb  Sb3  1  0.14887200  0.18805100  0.04220000  1
  Sb  Sb4  1  0.41797600  0.60375300  0.16437200  1
  Sb  Sb5  1  0.58202400  0.39624700  0.83562800  1
  Se  Se6  1  0.21288900  0.84904100  0.88674000  1
  Se  Se7  1  0.78711100  0.15095900  0.11326000  1
  Se  Se8  1  0.30935000  0.93394200  0.26813100  1
  Se  Se9  1  0.69065000  0.06605800  0.73186900  1
  Se  Se10  1  0.40407800  0.58648700  0.59067000  1
  Se  Se11  1  0.59592200  0.41351300  0.40933000  1
  Se  Se12  1  0.08591400  0.48194800  0.21728800  1
  Se  Se13  1  0.91408600  0.51805200  0.78271200  1
