# generated using pymatgen
data_LuNiSn
_symmetry_space_group_name_H-M   'P 1'
_cell_length_a   4.44275400
_cell_length_b   6.95805000
_cell_length_c   7.59485000
_cell_angle_alpha   90.00000000
_cell_angle_beta   90.00000000
_cell_angle_gamma   90.00000000
_symmetry_Int_Tables_number   1
_chemical_formula_structural   LuNiSn
_chemical_formula_sum   'Lu4 Ni4 Sn4'
_cell_volume   234.77887251
_cell_formula_units_Z   4
loop_
 _symmetry_equiv_pos_site_id
 _symmetry_equiv_pos_as_xyz
  1  'x, y, z'
loop_
 _atom_site_type_symbol
 _atom_site_label
 _atom_site_symmetry_multiplicity
 _atom_site_fract_x
 _atom_site_fract_y
 _atom_site_fract_z
 _atom_site_occupancy
  Lu  Lu0  1  0.25000000  0.51221500  0.20170300  1
  Lu  Lu1  1  0.25000000  0.01221500  0.29829700  1
  Lu  Lu2  1  0.75000000  0.98778500  0.70170300  1
  Lu  Lu3  1  0.75000000  0.48778500  0.79829700  1
  Ni  Ni4  1  0.75000000  0.20446800  0.08202700  1
  Ni  Ni5  1  0.75000000  0.70446800  0.41797300  1
  Ni  Ni6  1  0.25000000  0.29553200  0.58202700  1
  Ni  Ni7  1  0.25000000  0.79553200  0.91797300  1
  Sn  Sn8  1  0.75000000  0.80902800  0.08857200  1
  Sn  Sn9  1  0.75000000  0.30902800  0.41142800  1
  Sn  Sn10  1  0.25000000  0.69097200  0.58857200  1
  Sn  Sn11  1  0.25000000  0.19097200  0.91142800  1
