# generated using pymatgen
data_Sr2ZnN2
_symmetry_space_group_name_H-M   'P 1'
_cell_length_a   7.00619451
_cell_length_b   7.00619451
_cell_length_c   7.00619451
_cell_angle_alpha   147.81233158
_cell_angle_beta   147.81233158
_cell_angle_gamma   46.16247976
_symmetry_Int_Tables_number   1
_chemical_formula_structural   Sr2ZnN2
_chemical_formula_sum   'Sr2 Zn1 N2'
_cell_volume   97.25064109
_cell_formula_units_Z   1
loop_
 _symmetry_equiv_pos_site_id
 _symmetry_equiv_pos_as_xyz
  1  'x, y, z'
loop_
 _atom_site_type_symbol
 _atom_site_label
 _atom_site_symmetry_multiplicity
 _atom_site_fract_x
 _atom_site_fract_y
 _atom_site_fract_z
 _atom_site_occupancy
  Sr  Sr0  1  0.65885800  0.65885800  0.00000000  1
  Sr  Sr1  1  0.34114200  0.34114200  0.00000000  1
  Zn  Zn2  1  0.00000000  0.00000000  0.00000000  1
  N  N3  1  0.85663600  0.85663600  0.00000000  1
  N  N4  1  0.14336400  0.14336400  0.00000000  1
