# generated using pymatgen
data_PaFe3
_symmetry_space_group_name_H-M   'P 1'
_cell_length_a   3.85767300
_cell_length_b   3.84692300
_cell_length_c   3.84763700
_cell_angle_alpha   90.00104248
_cell_angle_beta   89.99961334
_cell_angle_gamma   89.99964305
_symmetry_Int_Tables_number   1
_chemical_formula_structural   PaFe3
_chemical_formula_sum   'Pa1 Fe3'
_cell_volume   57.09959098
_cell_formula_units_Z   1
loop_
 _symmetry_equiv_pos_site_id
 _symmetry_equiv_pos_as_xyz
  1  'x, y, z'
loop_
 _atom_site_type_symbol
 _atom_site_label
 _atom_site_symmetry_multiplicity
 _atom_site_fract_x
 _atom_site_fract_y
 _atom_site_fract_z
 _atom_site_occupancy
  Pa  Pa0  1  0.99999900  0.00000000  0.99999900  1
  Fe  Fe1  1  0.99999900  0.49999900  0.49999800  1
  Fe  Fe2  1  0.49999900  0.99999800  0.49999900  1
  Fe  Fe3  1  0.49999900  0.49999900  0.00000000  1
