# generated using pymatgen
data_ReClO3
_symmetry_space_group_name_H-M   'P 1'
_cell_length_a   9.34496200
_cell_length_b   5.89070100
_cell_length_c   9.44566743
_cell_angle_alpha   57.37312234
_cell_angle_beta   90.00000000
_cell_angle_gamma   90.00000000
_symmetry_Int_Tables_number   1
_chemical_formula_structural   ReClO3
_chemical_formula_sum   'Re4 Cl4 O12'
_cell_volume   437.91738065
_cell_formula_units_Z   4
loop_
 _symmetry_equiv_pos_site_id
 _symmetry_equiv_pos_as_xyz
  1  'x, y, z'
loop_
 _atom_site_type_symbol
 _atom_site_label
 _atom_site_symmetry_multiplicity
 _atom_site_fract_x
 _atom_site_fract_y
 _atom_site_fract_z
 _atom_site_occupancy
  Re  Re0  1  0.27268000  0.42536400  0.77405900  1
  Re  Re1  1  0.77268000  0.57463600  0.72594100  1
  Re  Re2  1  0.72732000  0.57463600  0.22594100  1
  Re  Re3  1  0.22732000  0.42536400  0.27405900  1
  Cl  Cl4  1  0.41884700  0.16986000  0.73117600  1
  Cl  Cl5  1  0.91884700  0.83014000  0.76882400  1
  Cl  Cl6  1  0.58115300  0.83014000  0.26882400  1
  Cl  Cl7  1  0.08115300  0.16986000  0.23117600  1
  O  O8  1  0.33033100  0.42913800  0.94661900  1
  O  O9  1  0.83033100  0.57086200  0.55338100  1
  O  O10  1  0.66966900  0.57086200  0.05338100  1
  O  O11  1  0.16966900  0.42913800  0.44661900  1
  O  O12  1  0.10081800  0.29811600  0.81319800  1
  O  O13  1  0.60081800  0.70188400  0.68680200  1
  O  O14  1  0.89918200  0.70188400  0.18680200  1
  O  O15  1  0.39918200  0.29811600  0.31319800  1
  O  O16  1  0.26834800  0.75294400  0.60348000  1
  O  O17  1  0.76834800  0.24705600  0.89652000  1
  O  O18  1  0.73165200  0.24705600  0.39652000  1
  O  O19  1  0.23165200  0.75294400  0.10348000  1
