# generated using pymatgen
data_KHo(CO3)2
_symmetry_space_group_name_H-M   'P 1'
_cell_length_a   6.40036064
_cell_length_b   6.40036064
_cell_length_c   7.04820308
_cell_angle_alpha   76.63360559
_cell_angle_beta   76.63360559
_cell_angle_gamma   97.03227456
_symmetry_Int_Tables_number   1
_chemical_formula_structural   KHo(CO3)2
_chemical_formula_sum   'K2 Ho2 C4 O12'
_cell_volume   268.53770597
_cell_formula_units_Z   2
loop_
 _symmetry_equiv_pos_site_id
 _symmetry_equiv_pos_as_xyz
  1  'x, y, z'
loop_
 _atom_site_type_symbol
 _atom_site_label
 _atom_site_symmetry_multiplicity
 _atom_site_fract_x
 _atom_site_fract_y
 _atom_site_fract_z
 _atom_site_occupancy
  K  K0  1  0.88163600  0.11836400  0.25000000  1
  K  K1  1  0.11836400  0.88163600  0.75000000  1
  Ho  Ho2  1  0.40789900  0.59210100  0.25000000  1
  Ho  Ho3  1  0.59210100  0.40789900  0.75000000  1
  C  C4  1  0.60253000  0.85617000  0.75187300  1
  C  C5  1  0.14383000  0.39747000  0.74812700  1
  C  C6  1  0.39747000  0.14383000  0.24812700  1
  C  C7  1  0.85617000  0.60253000  0.25187300  1
  O  O8  1  0.05708600  0.59202400  0.23492600  1
  O  O9  1  0.40797600  0.94291400  0.26507400  1
  O  O10  1  0.94291400  0.40797600  0.76507400  1
  O  O11  1  0.59202400  0.05708600  0.73492600  1
  O  O12  1  0.79141700  0.74144900  0.12303000  1
  O  O13  1  0.25855100  0.20858300  0.37697000  1
  O  O14  1  0.20858300  0.25855100  0.87697000  1
  O  O15  1  0.74144900  0.79141700  0.62303000  1
  O  O16  1  0.69960900  0.46477500  0.39987800  1
  O  O17  1  0.53522500  0.30039100  0.10012200  1
  O  O18  1  0.30039100  0.53522500  0.60012200  1
  O  O19  1  0.46477500  0.69960900  0.89987800  1
