# generated using pymatgen
data_HfP
_symmetry_space_group_name_H-M   'P 1'
_cell_length_a   3.66545512
_cell_length_b   3.66545512
_cell_length_c   12.43336300
_cell_angle_alpha   90.00000000
_cell_angle_beta   90.00000000
_cell_angle_gamma   119.99998417
_symmetry_Int_Tables_number   1
_chemical_formula_structural   HfP
_chemical_formula_sum   'Hf4 P4'
_cell_volume   144.66888283
_cell_formula_units_Z   4
loop_
 _symmetry_equiv_pos_site_id
 _symmetry_equiv_pos_as_xyz
  1  'x, y, z'
loop_
 _atom_site_type_symbol
 _atom_site_label
 _atom_site_symmetry_multiplicity
 _atom_site_fract_x
 _atom_site_fract_y
 _atom_site_fract_z
 _atom_site_occupancy
  Hf  Hf0  1  0.33333300  0.66666700  0.38399800  1
  Hf  Hf1  1  0.66666700  0.33333300  0.88399800  1
  Hf  Hf2  1  0.66666700  0.33333300  0.61600200  1
  Hf  Hf3  1  0.33333300  0.66666700  0.11600200  1
  P  P4  1  0.66666700  0.33333300  0.25000000  1
  P  P5  1  0.33333300  0.66666700  0.75000000  1
  P  P6  1  0.00000000  0.00000000  0.50000000  1
  P  P7  1  0.00000000  0.00000000  0.00000000  1
