# generated using pymatgen
data_Sr(GaH)2
_symmetry_space_group_name_H-M   'P 1'
_cell_length_a   4.41511856
_cell_length_b   4.41511856
_cell_length_c   4.68396300
_cell_angle_alpha   90.00000000
_cell_angle_beta   90.00000000
_cell_angle_gamma   120.00000845
_symmetry_Int_Tables_number   1
_chemical_formula_structural   Sr(GaH)2
_chemical_formula_sum   'Sr1 Ga2 H2'
_cell_volume   79.07310483
_cell_formula_units_Z   1
loop_
 _symmetry_equiv_pos_site_id
 _symmetry_equiv_pos_as_xyz
  1  'x, y, z'
loop_
 _atom_site_type_symbol
 _atom_site_label
 _atom_site_symmetry_multiplicity
 _atom_site_fract_x
 _atom_site_fract_y
 _atom_site_fract_z
 _atom_site_occupancy
  Sr  Sr0  1  0.00000000  0.00000000  0.00000000  1
  Ga  Ga1  1  0.33333300  0.66666700  0.46301700  1
  Ga  Ga2  1  0.66666700  0.33333300  0.53698300  1
  H  H3  1  0.33333300  0.66666700  0.09913800  1
  H  H4  1  0.66666700  0.33333300  0.90086200  1
