# generated using pymatgen
data_KCdF3
_symmetry_space_group_name_H-M   'P 1'
_cell_length_a   6.18673400
_cell_length_b   6.28933700
_cell_length_c   8.80182500
_cell_angle_alpha   90.00000000
_cell_angle_beta   90.00000000
_cell_angle_gamma   90.00000000
_symmetry_Int_Tables_number   1
_chemical_formula_structural   KCdF3
_chemical_formula_sum   'K4 Cd4 F12'
_cell_volume   342.48301607
_cell_formula_units_Z   4
loop_
 _symmetry_equiv_pos_site_id
 _symmetry_equiv_pos_as_xyz
  1  'x, y, z'
loop_
 _atom_site_type_symbol
 _atom_site_label
 _atom_site_symmetry_multiplicity
 _atom_site_fract_x
 _atom_site_fract_y
 _atom_site_fract_z
 _atom_site_occupancy
  K  K0  1  0.99176100  0.04146700  0.25000000  1
  K  K1  1  0.50823900  0.54146700  0.25000000  1
  K  K2  1  0.49176100  0.45853300  0.75000000  1
  K  K3  1  0.00823900  0.95853300  0.75000000  1
  Cd  Cd4  1  0.50000000  0.00000000  0.00000000  1
  Cd  Cd5  1  0.00000000  0.50000000  0.50000000  1
  Cd  Cd6  1  0.00000000  0.50000000  0.00000000  1
  Cd  Cd7  1  0.50000000  0.00000000  0.50000000  1
  F  F8  1  0.70564800  0.29268400  0.45785100  1
  F  F9  1  0.79435200  0.79268400  0.04214900  1
  F  F10  1  0.20564800  0.20731600  0.54214900  1
  F  F11  1  0.29435200  0.70731600  0.95785100  1
  F  F12  1  0.29435200  0.70731600  0.54214900  1
  F  F13  1  0.20564800  0.20731600  0.95785100  1
  F  F14  1  0.79435200  0.79268400  0.45785100  1
  F  F15  1  0.70564800  0.29268400  0.04214900  1
  F  F16  1  0.08039200  0.47281300  0.25000000  1
  F  F17  1  0.41960800  0.97281300  0.25000000  1
  F  F18  1  0.58039200  0.02718700  0.75000000  1
  F  F19  1  0.91960800  0.52718700  0.75000000  1
