# generated using pymatgen
data_Ag2GeO3
_symmetry_space_group_name_H-M   'P 1'
_cell_length_a   4.75468200
_cell_length_b   7.14059700
_cell_length_c   10.55232900
_cell_angle_alpha   90.00000000
_cell_angle_beta   90.00000000
_cell_angle_gamma   90.00000000
_symmetry_Int_Tables_number   1
_chemical_formula_structural   Ag2GeO3
_chemical_formula_sum   'Ag8 Ge4 O12'
_cell_volume   358.26495017
_cell_formula_units_Z   4
loop_
 _symmetry_equiv_pos_site_id
 _symmetry_equiv_pos_as_xyz
  1  'x, y, z'
loop_
 _atom_site_type_symbol
 _atom_site_label
 _atom_site_symmetry_multiplicity
 _atom_site_fract_x
 _atom_site_fract_y
 _atom_site_fract_z
 _atom_site_occupancy
  Ag  Ag0  1  0.59635200  0.62209100  0.62404600  1
  Ag  Ag1  1  0.90364800  0.37790900  0.12404600  1
  Ag  Ag2  1  0.09635200  0.87790900  0.37595400  1
  Ag  Ag3  1  0.40364800  0.12209100  0.87595400  1
  Ag  Ag4  1  0.98030500  0.39310200  0.77921400  1
  Ag  Ag5  1  0.51969500  0.60689800  0.27921400  1
  Ag  Ag6  1  0.48030500  0.10689800  0.22078600  1
  Ag  Ag7  1  0.01969500  0.89310200  0.72078600  1
  Ge  Ge8  1  0.53259100  0.13134300  0.56404900  1
  Ge  Ge9  1  0.96740900  0.86865700  0.06404900  1
  Ge  Ge10  1  0.03259100  0.36865700  0.43595100  1
  Ge  Ge11  1  0.46740900  0.63134300  0.93595100  1
  O  O12  1  0.70462800  0.14072800  0.71313100  1
  O  O13  1  0.79537200  0.85927200  0.21313100  1
  O  O14  1  0.20462800  0.35927200  0.28686900  1
  O  O15  1  0.29537200  0.64072800  0.78686900  1
  O  O16  1  0.28336800  0.32357800  0.56128900  1
  O  O17  1  0.21663200  0.67642200  0.06128900  1
  O  O18  1  0.78336800  0.17642200  0.43871100  1
  O  O19  1  0.71663200  0.82357800  0.93871100  1
  O  O20  1  0.62706800  0.41391300  0.96086200  1
  O  O21  1  0.87293200  0.58608700  0.46086200  1
  O  O22  1  0.12706800  0.08608700  0.03913800  1
  O  O23  1  0.37293200  0.91391300  0.53913800  1
