# generated using pymatgen
data_Ba2Si3Ag
_symmetry_space_group_name_H-M   'P 1'
_cell_length_a   12.48700405
_cell_length_b   10.87550039
_cell_length_c   8.67036513
_cell_angle_alpha   78.52236919
_cell_angle_beta   58.59757770
_cell_angle_gamma   42.88005310
_symmetry_Int_Tables_number   1
_chemical_formula_structural   Ba2Si3Ag
_chemical_formula_sum   'Ba8 Si12 Ag4'
_cell_volume   649.09773974
_cell_formula_units_Z   4
loop_
 _symmetry_equiv_pos_site_id
 _symmetry_equiv_pos_as_xyz
  1  'x, y, z'
loop_
 _atom_site_type_symbol
 _atom_site_label
 _atom_site_symmetry_multiplicity
 _atom_site_fract_x
 _atom_site_fract_y
 _atom_site_fract_z
 _atom_site_occupancy
  Ba  Ba0  1  0.12558800  0.12558800  0.37441200  1
  Ba  Ba1  1  0.87558800  0.87558800  0.12441200  1
  Ba  Ba2  1  0.12441200  0.12441200  0.87558800  1
  Ba  Ba3  1  0.37441200  0.37441200  0.12558800  1
  Ba  Ba4  1  0.62420300  0.62420300  0.37579700  1
  Ba  Ba5  1  0.37579700  0.37579700  0.62420300  1
  Ba  Ba6  1  0.62579700  0.62579700  0.87420300  1
  Ba  Ba7  1  0.87420300  0.87420300  0.62579700  1
  Si  Si8  1  0.33773200  0.65633800  0.82161100  1
  Si  Si9  1  0.18431800  0.82161100  0.65633800  1
  Si  Si10  1  0.82161100  0.18431800  0.33773200  1
  Si  Si11  1  0.65633800  0.33773200  0.18431800  1
  Si  Si12  1  0.91226800  0.59366200  0.42838900  1
  Si  Si13  1  0.06568200  0.42838900  0.59366200  1
  Si  Si14  1  0.42838900  0.06568200  0.91226800  1
  Si  Si15  1  0.90962200  0.59037800  0.90962200  1
  Si  Si16  1  0.65962200  0.34037800  0.65962200  1
  Si  Si17  1  0.34037800  0.65962200  0.34037800  1
  Si  Si18  1  0.59037800  0.90962200  0.59037800  1
  Si  Si19  1  0.59366200  0.91226800  0.06568200  1
  Ag  Ag20  1  0.08303300  0.41696700  0.08303300  1
  Ag  Ag21  1  0.16696700  0.83303300  0.16696700  1
  Ag  Ag22  1  0.41696700  0.08303300  0.41696700  1
  Ag  Ag23  1  0.83303300  0.16696700  0.83303300  1
