# generated using pymatgen
data_ZrSiPt
_symmetry_space_group_name_H-M   'P 1'
_cell_length_a   3.93229300
_cell_length_b   6.66535000
_cell_length_c   7.62328400
_cell_angle_alpha   90.00000000
_cell_angle_beta   90.00000000
_cell_angle_gamma   90.00000000
_symmetry_Int_Tables_number   1
_chemical_formula_structural   ZrSiPt
_chemical_formula_sum   'Zr4 Si4 Pt4'
_cell_volume   199.80710570
_cell_formula_units_Z   4
loop_
 _symmetry_equiv_pos_site_id
 _symmetry_equiv_pos_as_xyz
  1  'x, y, z'
loop_
 _atom_site_type_symbol
 _atom_site_label
 _atom_site_symmetry_multiplicity
 _atom_site_fract_x
 _atom_site_fract_y
 _atom_site_fract_z
 _atom_site_occupancy
  Zr  Zr0  1  0.25000000  0.97493100  0.17778800  1
  Zr  Zr1  1  0.25000000  0.47493100  0.32221200  1
  Zr  Zr2  1  0.75000000  0.52506900  0.67778800  1
  Zr  Zr3  1  0.75000000  0.02506900  0.82221200  1
  Si  Si4  1  0.75000000  0.26378400  0.12197400  1
  Si  Si5  1  0.75000000  0.76378400  0.37802600  1
  Si  Si6  1  0.25000000  0.23621600  0.62197400  1
  Si  Si7  1  0.25000000  0.73621600  0.87802600  1
  Pt  Pt8  1  0.75000000  0.64590500  0.06409000  1
  Pt  Pt9  1  0.75000000  0.14590500  0.43591000  1
  Pt  Pt10  1  0.25000000  0.85409500  0.56409000  1
  Pt  Pt11  1  0.25000000  0.35409500  0.93591000  1
