# generated using pymatgen
data_NaGeAu
_symmetry_space_group_name_H-M   'P 1'
_cell_length_a   5.75975862
_cell_length_b   5.75975862
_cell_length_c   5.75975862
_cell_angle_alpha   133.87593209
_cell_angle_beta   100.44086659
_cell_angle_gamma   97.22004235
_symmetry_Int_Tables_number   1
_chemical_formula_structural   NaGeAu
_chemical_formula_sum   'Na2 Ge2 Au2'
_cell_volume   126.66176024
_cell_formula_units_Z   2
loop_
 _symmetry_equiv_pos_site_id
 _symmetry_equiv_pos_as_xyz
  1  'x, y, z'
loop_
 _atom_site_type_symbol
 _atom_site_label
 _atom_site_symmetry_multiplicity
 _atom_site_fract_x
 _atom_site_fract_y
 _atom_site_fract_z
 _atom_site_occupancy
  Na  Na0  1  0.21904500  0.71904500  0.50000000  1
  Na  Na1  1  0.59284400  0.59284400  0.00000000  1
  Ge  Ge2  1  0.99896000  0.32346700  0.67549400  1
  Ge  Ge3  1  0.64797300  0.32346700  0.32450600  1
  Au  Au4  1  0.20209100  0.99951900  0.20257200  1
  Au  Au5  1  0.79694700  0.99951900  0.79742800  1
