# generated using pymatgen
data_BaBAsO5
_symmetry_space_group_name_H-M   'P 1'
_cell_length_a   7.44012093
_cell_length_b   7.44012093
_cell_length_c   7.20150200
_cell_angle_alpha   90.00000000
_cell_angle_beta   90.00000000
_cell_angle_gamma   120.00000826
_symmetry_Int_Tables_number   1
_chemical_formula_structural   BaBAsO5
_chemical_formula_sum   'Ba3 B3 As3 O15'
_cell_volume   345.23408740
_cell_formula_units_Z   3
loop_
 _symmetry_equiv_pos_site_id
 _symmetry_equiv_pos_as_xyz
  1  'x, y, z'
loop_
 _atom_site_type_symbol
 _atom_site_label
 _atom_site_symmetry_multiplicity
 _atom_site_fract_x
 _atom_site_fract_y
 _atom_site_fract_z
 _atom_site_occupancy
  Ba  Ba0  1  0.38974400  0.38974400  0.50000000  1
  Ba  Ba1  1  0.00000000  0.61025600  0.16666700  1
  Ba  Ba2  1  0.61025600  0.00000000  0.83333300  1
  B  B3  1  0.90449700  0.90449700  0.50000000  1
  B  B4  1  0.00000000  0.09550300  0.16666700  1
  B  B5  1  0.09550300  0.00000000  0.83333300  1
  As  As6  1  0.60647400  0.00000000  0.33333300  1
  As  As7  1  0.39352600  0.39352600  0.00000000  1
  As  As8  1  0.00000000  0.60647400  0.66666700  1
  O  O9  1  0.97394800  0.97394800  0.00000000  1
  O  O10  1  0.02605200  0.00000000  0.33333300  1
  O  O11  1  0.00000000  0.02605200  0.66666700  1
  O  O12  1  0.56730800  0.15095500  0.48275800  1
  O  O13  1  0.58364700  0.43269200  0.14942500  1
  O  O14  1  0.84904500  0.41635300  0.81609100  1
  O  O15  1  0.14408400  0.82265300  0.81244300  1
  O  O16  1  0.17734700  0.32143100  0.14577700  1
  O  O17  1  0.67856900  0.85591600  0.47911000  1
  O  O18  1  0.15095500  0.56730800  0.51724200  1
  O  O19  1  0.43269200  0.58364700  0.85057500  1
  O  O20  1  0.41635300  0.84904500  0.18390900  1
  O  O21  1  0.85591600  0.67856900  0.52089000  1
  O  O22  1  0.32143100  0.17734700  0.85422300  1
  O  O23  1  0.82265300  0.14408400  0.18755700  1
