# generated using pymatgen
data_K2AgP
_symmetry_space_group_name_H-M   'P 1'
_cell_length_a   6.30260052
_cell_length_b   6.30260052
_cell_length_c   6.05052800
_cell_angle_alpha   90.00000000
_cell_angle_beta   90.00000000
_cell_angle_gamma   104.13337719
_symmetry_Int_Tables_number   1
_chemical_formula_structural   K2AgP
_chemical_formula_sum   'K4 Ag2 P2'
_cell_volume   233.06853090
_cell_formula_units_Z   2
loop_
 _symmetry_equiv_pos_site_id
 _symmetry_equiv_pos_as_xyz
  1  'x, y, z'
loop_
 _atom_site_type_symbol
 _atom_site_label
 _atom_site_symmetry_multiplicity
 _atom_site_fract_x
 _atom_site_fract_y
 _atom_site_fract_z
 _atom_site_occupancy
  K  K0  1  0.96843700  0.31220200  0.75000000  1
  K  K1  1  0.31220200  0.96843700  0.75000000  1
  K  K2  1  0.03156300  0.68779800  0.25000000  1
  K  K3  1  0.68779800  0.03156300  0.25000000  1
  Ag  Ag4  1  0.50000000  0.50000000  0.50000000  1
  Ag  Ag5  1  0.50000000  0.50000000  0.00000000  1
  P  P6  1  0.75177800  0.75177800  0.75000000  1
  P  P7  1  0.24822200  0.24822200  0.25000000  1
