# generated using pymatgen
data_K3SbS4
_symmetry_space_group_name_H-M   'P 1'
_cell_length_a   7.94179085
_cell_length_b   7.94179085
_cell_length_c   7.82567000
_cell_angle_alpha   90.00000000
_cell_angle_beta   90.00000000
_cell_angle_gamma   93.33153922
_symmetry_Int_Tables_number   1
_chemical_formula_structural   K3SbS4
_chemical_formula_sum   'K6 Sb2 S8'
_cell_volume   492.74682327
_cell_formula_units_Z   2
loop_
 _symmetry_equiv_pos_site_id
 _symmetry_equiv_pos_as_xyz
  1  'x, y, z'
loop_
 _atom_site_type_symbol
 _atom_site_label
 _atom_site_symmetry_multiplicity
 _atom_site_fract_x
 _atom_site_fract_y
 _atom_site_fract_z
 _atom_site_occupancy
  K  K0  1  0.69549300  0.30450700  0.98040200  1
  K  K1  1  0.30450700  0.69549300  0.48040200  1
  K  K2  1  0.25645900  0.18244300  0.48631000  1
  K  K3  1  0.74354100  0.81755700  0.98631000  1
  K  K4  1  0.81755700  0.74354100  0.48631000  1
  K  K5  1  0.18244300  0.25645900  0.98631000  1
  Sb  Sb6  1  0.75809200  0.24190800  0.48186400  1
  Sb  Sb7  1  0.24190800  0.75809200  0.98186400  1
  S  S8  1  0.42525100  0.57474900  0.84424400  1
  S  S9  1  0.57474900  0.42525100  0.34424400  1
  S  S10  1  0.09242600  0.90757400  0.77345600  1
  S  S11  1  0.90757400  0.09242600  0.27345600  1
  S  S12  1  0.40268600  0.95213300  0.15480700  1
  S  S13  1  0.59731400  0.04786700  0.65480700  1
  S  S14  1  0.04786700  0.59731400  0.15480700  1
  S  S15  1  0.95213300  0.40268600  0.65480700  1
