# generated using pymatgen
data_Ni9S8
_symmetry_space_group_name_H-M   'P 1'
_cell_length_a   7.23504827
_cell_length_b   7.23504827
_cell_length_c   9.35497400
_cell_angle_alpha   90.00000000
_cell_angle_beta   90.00000000
_cell_angle_gamma   100.76374194
_symmetry_Int_Tables_number   1
_chemical_formula_structural   Ni9S8
_chemical_formula_sum   'Ni18 S16'
_cell_volume   481.07888363
_cell_formula_units_Z   2
loop_
 _symmetry_equiv_pos_site_id
 _symmetry_equiv_pos_as_xyz
  1  'x, y, z'
loop_
 _atom_site_type_symbol
 _atom_site_label
 _atom_site_symmetry_multiplicity
 _atom_site_fract_x
 _atom_site_fract_y
 _atom_site_fract_z
 _atom_site_occupancy
  Ni  Ni0  1  0.54072300  0.70905400  0.37498600  1
  Ni  Ni1  1  0.45927700  0.29094600  0.37498600  1
  Ni  Ni2  1  0.70905400  0.54072300  0.62501400  1
  Ni  Ni3  1  0.29094600  0.45927700  0.62501400  1
  Ni  Ni4  1  0.50000000  0.50000000  0.00000000  1
  Ni  Ni5  1  0.00000000  0.00000000  0.21516200  1
  Ni  Ni6  1  0.00000000  0.00000000  0.78483800  1
  Ni  Ni7  1  0.22187500  0.22187500  0.00000000  1
  Ni  Ni8  1  0.77812500  0.77812500  0.00000000  1
  Ni  Ni9  1  0.00000000  0.00000000  0.50000000  1
  Ni  Ni10  1  0.68632600  0.05736700  0.12308000  1
  Ni  Ni11  1  0.31367400  0.94263300  0.12308000  1
  Ni  Ni12  1  0.05736700  0.68632600  0.87692000  1
  Ni  Ni13  1  0.94263300  0.31367400  0.87692000  1
  Ni  Ni14  1  0.00000000  0.50000000  0.26871600  1
  Ni  Ni15  1  0.50000000  0.00000000  0.73128400  1
  Ni  Ni16  1  0.76390400  0.23609600  0.50000000  1
  Ni  Ni17  1  0.23609600  0.76390400  0.50000000  1
  S  S18  1  0.03501200  0.73042500  0.11820900  1
  S  S19  1  0.96498800  0.26957500  0.11820900  1
  S  S20  1  0.73042500  0.03501200  0.88179100  1
  S  S21  1  0.26957500  0.96498800  0.88179100  1
  S  S22  1  0.74999000  0.98147600  0.36092200  1
  S  S23  1  0.25001000  0.01852400  0.36092200  1
  S  S24  1  0.98147600  0.74999000  0.63907800  1
  S  S25  1  0.01852400  0.25001000  0.63907800  1
  S  S26  1  0.51580000  0.74683400  0.13637400  1
  S  S27  1  0.48420000  0.25316600  0.13637400  1
  S  S28  1  0.74683400  0.51580000  0.86362600  1
  S  S29  1  0.25316600  0.48420000  0.86362600  1
  S  S30  1  0.74220100  0.49889000  0.38505600  1
  S  S31  1  0.25779900  0.50111000  0.38505600  1
  S  S32  1  0.49889000  0.74220100  0.61494400  1
  S  S33  1  0.50111000  0.25779900  0.61494400  1
