# generated using pymatgen
data_Li3Ga2
_symmetry_space_group_name_H-M   'P 1'
_cell_length_a   5.25951630
_cell_length_b   5.25951630
_cell_length_c   5.25951529
_cell_angle_alpha   49.07554908
_cell_angle_beta   49.07554908
_cell_angle_gamma   49.07555562
_symmetry_Int_Tables_number   1
_chemical_formula_structural   Li3Ga2
_chemical_formula_sum   'Li3 Ga2'
_cell_volume   76.27718243
_cell_formula_units_Z   1
loop_
 _symmetry_equiv_pos_site_id
 _symmetry_equiv_pos_as_xyz
  1  'x, y, z'
loop_
 _atom_site_type_symbol
 _atom_site_label
 _atom_site_symmetry_multiplicity
 _atom_site_fract_x
 _atom_site_fract_y
 _atom_site_fract_z
 _atom_site_occupancy
  Li  Li0  1  0.00000000  0.00000000  0.00000000  1
  Li  Li1  1  0.59595900  0.59595900  0.59595900  1
  Li  Li2  1  0.40404100  0.40404100  0.40404100  1
  Ga  Ga3  1  0.20060000  0.20060000  0.20060000  1
  Ga  Ga4  1  0.79940000  0.79940000  0.79940000  1
