# generated using pymatgen
data_LiDyO2
_symmetry_space_group_name_H-M   'P 1'
_cell_length_a   3.39089900
_cell_length_b   5.32724900
_cell_length_c   11.25435400
_cell_angle_alpha   90.00000000
_cell_angle_beta   90.00000000
_cell_angle_gamma   90.00000000
_symmetry_Int_Tables_number   1
_chemical_formula_structural   LiDyO2
_chemical_formula_sum   'Li4 Dy4 O8'
_cell_volume   203.30048857
_cell_formula_units_Z   4
loop_
 _symmetry_equiv_pos_site_id
 _symmetry_equiv_pos_as_xyz
  1  'x, y, z'
loop_
 _atom_site_type_symbol
 _atom_site_label
 _atom_site_symmetry_multiplicity
 _atom_site_fract_x
 _atom_site_fract_y
 _atom_site_fract_z
 _atom_site_occupancy
  Li  Li0  1  0.25000000  0.09832500  0.06666000  1
  Li  Li1  1  0.25000000  0.40167500  0.56666000  1
  Li  Li2  1  0.75000000  0.59832500  0.43334000  1
  Li  Li3  1  0.75000000  0.90167500  0.93334000  1
  Dy  Dy4  1  0.25000000  0.04715400  0.35947600  1
  Dy  Dy5  1  0.25000000  0.45284600  0.85947600  1
  Dy  Dy6  1  0.75000000  0.54715400  0.14052400  1
  Dy  Dy7  1  0.75000000  0.95284600  0.64052400  1
  O  O8  1  0.25000000  0.18935200  0.70622000  1
  O  O9  1  0.75000000  0.24140000  0.47405100  1
  O  O10  1  0.75000000  0.25860000  0.97405100  1
  O  O11  1  0.25000000  0.31064800  0.20622000  1
  O  O12  1  0.75000000  0.68935200  0.79378000  1
  O  O13  1  0.25000000  0.74140000  0.02594900  1
  O  O14  1  0.25000000  0.75860000  0.52594900  1
  O  O15  1  0.75000000  0.81064800  0.29378000  1
