# generated using pymatgen
data_NdZnPO
_symmetry_space_group_name_H-M   'P 1'
_cell_length_a   10.66105905
_cell_length_b   10.66105905
_cell_length_c   10.66105900
_cell_angle_alpha   21.63784320
_cell_angle_beta   21.63784320
_cell_angle_gamma   21.63784822
_symmetry_Int_Tables_number   1
_chemical_formula_structural   NdZnPO
_chemical_formula_sum   'Nd2 Zn2 P2 O2'
_cell_volume   144.37704005
_cell_formula_units_Z   2
loop_
 _symmetry_equiv_pos_site_id
 _symmetry_equiv_pos_as_xyz
  1  'x, y, z'
loop_
 _atom_site_type_symbol
 _atom_site_label
 _atom_site_symmetry_multiplicity
 _atom_site_fract_x
 _atom_site_fract_y
 _atom_site_fract_z
 _atom_site_occupancy
  Nd  Nd0  1  0.61869500  0.61869500  0.61869500  1
  Nd  Nd1  1  0.38130500  0.38130500  0.38130500  1
  Zn  Zn2  1  0.19612300  0.19612300  0.19612300  1
  Zn  Zn3  1  0.80387700  0.80387700  0.80387700  1
  P  P4  1  0.11418000  0.11418000  0.11418000  1
  P  P5  1  0.88582000  0.88582000  0.88582000  1
  O  O6  1  0.69493300  0.69493300  0.69493300  1
  O  O7  1  0.30506700  0.30506700  0.30506700  1
