# generated using pymatgen
data_Sm(Mo3S4)2
_symmetry_space_group_name_H-M   'P 1'
_cell_length_a   6.51521631
_cell_length_b   6.51521631
_cell_length_c   6.51521667
_cell_angle_alpha   88.98384790
_cell_angle_beta   88.98384790
_cell_angle_gamma   88.98383761
_symmetry_Int_Tables_number   1
_chemical_formula_structural   Sm(Mo3S4)2
_chemical_formula_sum   'Sm1 Mo6 S8'
_cell_volume   276.42924460
_cell_formula_units_Z   1
loop_
 _symmetry_equiv_pos_site_id
 _symmetry_equiv_pos_as_xyz
  1  'x, y, z'
loop_
 _atom_site_type_symbol
 _atom_site_label
 _atom_site_symmetry_multiplicity
 _atom_site_fract_x
 _atom_site_fract_y
 _atom_site_fract_z
 _atom_site_occupancy
  Sm  Sm0  1  0.00000000  0.00000000  0.00000000  1
  Mo  Mo1  1  0.56184600  0.22409300  0.41994500  1
  Mo  Mo2  1  0.22409300  0.41994500  0.56184600  1
  Mo  Mo3  1  0.58005500  0.43815400  0.77590700  1
  Mo  Mo4  1  0.41994500  0.56184600  0.22409300  1
  Mo  Mo5  1  0.77590700  0.58005500  0.43815400  1
  Mo  Mo6  1  0.43815400  0.77590700  0.58005500  1
  S  S7  1  0.37233700  0.12722200  0.75225800  1
  S  S8  1  0.24118800  0.24118800  0.24118800  1
  S  S9  1  0.87277800  0.24774200  0.62766300  1
  S  S10  1  0.75225800  0.37233700  0.12722200  1
  S  S11  1  0.24774200  0.62766300  0.87277800  1
  S  S12  1  0.12722200  0.75225800  0.37233700  1
  S  S13  1  0.75881200  0.75881200  0.75881200  1
  S  S14  1  0.62766300  0.87277800  0.24774200  1
