# generated using pymatgen
data_Sr(GaAs)2
_symmetry_space_group_name_H-M   'P 1'
_cell_length_a   4.09819100
_cell_length_b   9.68460200
_cell_length_c   12.64997188
_cell_angle_alpha   84.39203989
_cell_angle_beta   90.00000000
_cell_angle_gamma   90.00000000
_symmetry_Int_Tables_number   1
_chemical_formula_structural   Sr(GaAs)2
_chemical_formula_sum   'Sr4 Ga8 As8'
_cell_volume   499.66615883
_cell_formula_units_Z   4
loop_
 _symmetry_equiv_pos_site_id
 _symmetry_equiv_pos_as_xyz
  1  'x, y, z'
loop_
 _atom_site_type_symbol
 _atom_site_label
 _atom_site_symmetry_multiplicity
 _atom_site_fract_x
 _atom_site_fract_y
 _atom_site_fract_z
 _atom_site_occupancy
  Sr  Sr0  1  0.00000000  0.50000000  0.00000000  1
  Sr  Sr1  1  0.00000000  0.00000000  0.50000000  1
  Sr  Sr2  1  0.50000000  0.80173000  0.77786800  1
  Sr  Sr3  1  0.50000000  0.19827000  0.22213200  1
  Ga  Ga4  1  0.50000000  0.19655100  0.67516200  1
  Ga  Ga5  1  0.00000000  0.60060700  0.55416600  1
  Ga  Ga6  1  0.50000000  0.80344900  0.32483800  1
  Ga  Ga7  1  0.50000000  0.39550900  0.78053300  1
  Ga  Ga8  1  0.50000000  0.60449100  0.21946700  1
  Ga  Ga9  1  0.00000000  0.10847300  0.93657600  1
  Ga  Ga10  1  0.00000000  0.89152700  0.06342400  1
  Ga  Ga11  1  0.00000000  0.39939300  0.44583400  1
  As  As12  1  0.00000000  0.05171700  0.74181900  1
  As  As13  1  0.00000000  0.55348200  0.75508400  1
  As  As14  1  0.00000000  0.94828300  0.25818100  1
  As  As15  1  0.00000000  0.44651800  0.24491600  1
  As  As16  1  0.50000000  0.24232900  0.47404400  1
  As  As17  1  0.50000000  0.26084400  0.96672400  1
  As  As18  1  0.50000000  0.73915600  0.03327600  1
  As  As19  1  0.50000000  0.75767100  0.52595600  1
