# generated using pymatgen
data_ZnFeF6
_symmetry_space_group_name_H-M   'P 1'
_cell_length_a   5.43084445
_cell_length_b   5.43084445
_cell_length_c   5.43084457
_cell_angle_alpha   58.30281892
_cell_angle_beta   58.30281892
_cell_angle_gamma   58.30282990
_symmetry_Int_Tables_number   1
_chemical_formula_structural   ZnFeF6
_chemical_formula_sum   'Zn1 Fe1 F6'
_cell_volume   108.86056268
_cell_formula_units_Z   1
loop_
 _symmetry_equiv_pos_site_id
 _symmetry_equiv_pos_as_xyz
  1  'x, y, z'
loop_
 _atom_site_type_symbol
 _atom_site_label
 _atom_site_symmetry_multiplicity
 _atom_site_fract_x
 _atom_site_fract_y
 _atom_site_fract_z
 _atom_site_occupancy
  Zn  Zn0  1  0.50000000  0.50000000  0.50000000  1
  Fe  Fe1  1  0.00000000  0.00000000  0.00000000  1
  F  F2  1  0.66945100  0.84270500  0.24300700  1
  F  F3  1  0.84270500  0.24300700  0.66945100  1
  F  F4  1  0.75699300  0.33054900  0.15729500  1
  F  F5  1  0.15729500  0.75699300  0.33054900  1
  F  F6  1  0.33054900  0.15729500  0.75699300  1
  F  F7  1  0.24300700  0.66945100  0.84270500  1
