# generated using pymatgen
data_Y2Cr3O12
_symmetry_space_group_name_H-M   'P 1'
_cell_length_a   16.13413985
_cell_length_b   15.62247818
_cell_length_c   5.99175428
_cell_angle_alpha   83.97430927
_cell_angle_beta   74.35204725
_cell_angle_gamma   21.67364348
_symmetry_Int_Tables_number   1
_chemical_formula_structural   Y2Cr3O12
_chemical_formula_sum   'Y4 Cr6 O24'
_cell_volume   489.96068948
_cell_formula_units_Z   2
loop_
 _symmetry_equiv_pos_site_id
 _symmetry_equiv_pos_as_xyz
  1  'x, y, z'
loop_
 _atom_site_type_symbol
 _atom_site_label
 _atom_site_symmetry_multiplicity
 _atom_site_fract_x
 _atom_site_fract_y
 _atom_site_fract_z
 _atom_site_occupancy
  Y  Y0  1  0.67020600  0.67020600  0.32979400  1
  Y  Y1  1  0.32979400  0.32979400  0.67020600  1
  Y  Y2  1  0.92020600  0.92020600  0.57979400  1
  Y  Y3  1  0.57979400  0.57979400  0.92020600  1
  Cr  Cr4  1  0.75000000  0.75000000  0.75000000  1
  Cr  Cr5  1  0.41562200  0.41562200  0.08437800  1
  Cr  Cr6  1  0.08437800  0.08437800  0.41562200  1
  Cr  Cr7  1  0.16562200  0.16562200  0.83437800  1
  Cr  Cr8  1  0.83437800  0.83437800  0.16562200  1
  Cr  Cr9  1  0.50000000  0.50000000  0.50000000  1
  O  O10  1  0.11845300  0.27414500  0.05426800  1
  O  O11  1  0.78276600  0.94588700  0.40190900  1
  O  O12  1  0.47483500  0.58944900  0.71267900  1
  O  O13  1  0.66055100  0.77516500  0.02696400  1
  O  O14  1  0.30411300  0.46723400  0.38056200  1
  O  O15  1  0.97585500  0.13154700  0.69686700  1
  O  O16  1  0.53732100  0.02696400  0.77516500  1
  O  O17  1  0.19573200  0.69686700  0.13154700  1
  O  O18  1  0.84809100  0.38056200  0.46723400  1
  O  O19  1  0.86943800  0.40190900  0.94588700  1
  O  O20  1  0.55313300  0.05426800  0.27414500  1
  O  O21  1  0.22303600  0.71267900  0.58944900  1
  O  O22  1  0.27414500  0.11845300  0.55313300  1
  O  O23  1  0.94588700  0.78276600  0.86943800  1
  O  O24  1  0.58944900  0.47483500  0.22303600  1
  O  O25  1  0.77516500  0.66055100  0.53732100  1
  O  O26  1  0.46723400  0.30411300  0.84809100  1
  O  O27  1  0.13154700  0.97585500  0.19573200  1
  O  O28  1  0.02696400  0.53732100  0.66055100  1
  O  O29  1  0.69686700  0.19573200  0.97585500  1
  O  O30  1  0.38056200  0.84809100  0.30411300  1
  O  O31  1  0.40190900  0.86943800  0.78276600  1
  O  O32  1  0.05426800  0.55313300  0.11845300  1
  O  O33  1  0.71267900  0.22303600  0.47483500  1
