# generated using pymatgen
data_V2ZnO4
_symmetry_space_group_name_H-M   'P 1'
_cell_length_a   6.06706662
_cell_length_b   6.06706662
_cell_length_c   14.91240400
_cell_angle_alpha   90.00000000
_cell_angle_beta   90.00000000
_cell_angle_gamma   120.00000678
_symmetry_Int_Tables_number   1
_chemical_formula_structural   V2ZnO4
_chemical_formula_sum   'V12 Zn6 O24'
_cell_volume   475.37440045
_cell_formula_units_Z   6
loop_
 _symmetry_equiv_pos_site_id
 _symmetry_equiv_pos_as_xyz
  1  'x, y, z'
loop_
 _atom_site_type_symbol
 _atom_site_label
 _atom_site_symmetry_multiplicity
 _atom_site_fract_x
 _atom_site_fract_y
 _atom_site_fract_z
 _atom_site_occupancy
  V  V0  1  0.83449200  0.16550800  0.16704600  1
  V  V1  1  0.33101500  0.16550800  0.16704600  1
  V  V2  1  0.50022100  0.49977900  0.49944200  1
  V  V3  1  0.83449200  0.66898500  0.16704600  1
  V  V4  1  0.66666700  0.33333300  0.33312300  1
  V  V5  1  0.99955900  0.49977900  0.49944200  1
  V  V6  1  0.16741300  0.83258700  0.83298600  1
  V  V7  1  0.50022100  0.00044100  0.49944200  1
  V  V8  1  0.16741300  0.33482600  0.83298600  1
  V  V9  1  0.33333300  0.66666700  0.66542900  1
  V  V10  1  0.66517400  0.83258700  0.83298600  1
  V  V11  1  0.66666700  0.33333300  0.95850300  1
  Zn  Zn12  1  0.33333300  0.66666700  0.04671300  1
  Zn  Zn13  1  0.00000000  0.00000000  0.37494500  1
  Zn  Zn14  1  0.00000000  0.00000000  0.00167000  1
  Zn  Zn15  1  0.66666700  0.33333300  0.70764100  1
  Zn  Zn16  1  0.33333300  0.66666700  0.29063800  1
  Zn  Zn17  1  0.00000000  0.00000000  0.62489400  1
  O  O18  1  0.68934000  0.84467000  0.09154100  1
  O  O19  1  0.00000000  0.00000000  0.24132900  1
  O  O20  1  0.15533000  0.31066000  0.09154100  1
  O  O21  1  0.15533000  0.84467000  0.09154100  1
  O  O22  1  0.51437300  0.48562700  0.24628500  1
  O  O23  1  0.36340400  0.18170200  0.41930700  1
  O  O24  1  0.51437300  0.02874500  0.24628500  1
  O  O25  1  0.66666700  0.33333300  0.08900900  1
  O  O26  1  0.81829800  0.63659600  0.41930700  1
  O  O27  1  0.66666700  0.33333300  0.57181100  1
  O  O28  1  0.97125500  0.48562700  0.24628500  1
  O  O29  1  0.81829800  0.18170200  0.41930700  1
  O  O30  1  0.18073300  0.81926700  0.58032100  1
  O  O31  1  0.02846500  0.51423200  0.75241200  1
  O  O32  1  0.18073300  0.36146500  0.58032100  1
  O  O33  1  0.33333300  0.66666700  0.42775200  1
  O  O34  1  0.33333300  0.66666700  0.90575700  1
  O  O35  1  0.48576800  0.97153500  0.75241200  1
  O  O36  1  0.63853500  0.81926700  0.58032100  1
  O  O37  1  0.48576800  0.51423200  0.75241200  1
  O  O38  1  0.84053700  0.15946300  0.91012900  1
  O  O39  1  0.00000000  0.00000000  0.76192400  1
  O  O40  1  0.84053700  0.68107300  0.91012900  1
  O  O41  1  0.31892700  0.15946300  0.91012900  1
