# generated using pymatgen
data_CaMn2P2O9
_symmetry_space_group_name_H-M   'P 1'
_cell_length_a   6.58057900
_cell_length_b   7.41232200
_cell_length_c   14.35953000
_cell_angle_alpha   90.00000000
_cell_angle_beta   90.00000000
_cell_angle_gamma   90.00000000
_symmetry_Int_Tables_number   1
_chemical_formula_structural   CaMn2P2O9
_chemical_formula_sum   'Ca4 Mn8 P8 O36'
_cell_volume   700.42011494
_cell_formula_units_Z   4
loop_
 _symmetry_equiv_pos_site_id
 _symmetry_equiv_pos_as_xyz
  1  'x, y, z'
loop_
 _atom_site_type_symbol
 _atom_site_label
 _atom_site_symmetry_multiplicity
 _atom_site_fract_x
 _atom_site_fract_y
 _atom_site_fract_z
 _atom_site_occupancy
  Ca  Ca0  1  0.25000000  0.88484300  0.78008800  1
  Ca  Ca1  1  0.25000000  0.61515700  0.28008800  1
  Ca  Ca2  1  0.75000000  0.38484300  0.71991200  1
  Ca  Ca3  1  0.75000000  0.11515700  0.21991200  1
  Mn  Mn4  1  0.25000000  0.35112800  0.87997600  1
  Mn  Mn5  1  0.75000000  0.64887200  0.12002400  1
  Mn  Mn6  1  0.75000000  0.85112800  0.62002400  1
  Mn  Mn7  1  0.25000000  0.14887200  0.37997600  1
  Mn  Mn8  1  0.00000000  0.00000000  0.00000000  1
  Mn  Mn9  1  0.00000000  0.50000000  0.50000000  1
  Mn  Mn10  1  0.50000000  0.50000000  0.50000000  1
  Mn  Mn11  1  0.50000000  0.00000000  0.00000000  1
  P  P12  1  0.75000000  0.36456500  0.93436400  1
  P  P13  1  0.25000000  0.63543500  0.06563600  1
  P  P14  1  0.25000000  0.86456500  0.56563600  1
  P  P15  1  0.75000000  0.13543500  0.43436400  1
  P  P16  1  0.25000000  0.39002300  0.69452000  1
  P  P17  1  0.25000000  0.10997700  0.19452000  1
  P  P18  1  0.75000000  0.89002300  0.80548000  1
  P  P19  1  0.75000000  0.60997700  0.30548000  1
  O  O20  1  0.55540500  0.60722700  0.36477600  1
  O  O21  1  0.05540500  0.39277300  0.63522400  1
  O  O22  1  0.44459500  0.10722700  0.13522400  1
  O  O23  1  0.94459500  0.89277300  0.86477600  1
  O  O24  1  0.44459500  0.39277300  0.63522400  1
  O  O25  1  0.94459500  0.60722700  0.36477600  1
  O  O26  1  0.55540500  0.89277300  0.86477600  1
  O  O27  1  0.05540500  0.10722700  0.13522400  1
  O  O28  1  0.75000000  0.32097700  0.48466100  1
  O  O29  1  0.25000000  0.67902300  0.51533900  1
  O  O30  1  0.25000000  0.82097700  0.01533900  1
  O  O31  1  0.75000000  0.17902300  0.98466100  1
  O  O32  1  0.25000000  0.12382400  0.94593200  1
  O  O33  1  0.75000000  0.87617600  0.05406800  1
  O  O34  1  0.75000000  0.62382400  0.55406800  1
  O  O35  1  0.25000000  0.37617600  0.44593200  1
  O  O36  1  0.25000000  0.21736200  0.75896600  1
  O  O37  1  0.75000000  0.78263800  0.24103400  1
  O  O38  1  0.75000000  0.71736200  0.74103400  1
  O  O39  1  0.25000000  0.28263800  0.25896600  1
  O  O40  1  0.93319500  0.12643000  0.36681900  1
  O  O41  1  0.43319500  0.87357000  0.63318100  1
  O  O42  1  0.06680500  0.62643000  0.13318100  1
  O  O43  1  0.56680500  0.37357000  0.86681900  1
  O  O44  1  0.06680500  0.87357000  0.63318100  1
  O  O45  1  0.56680500  0.12643000  0.36681900  1
  O  O46  1  0.93319500  0.37357000  0.86681900  1
  O  O47  1  0.43319500  0.62643000  0.13318100  1
  O  O48  1  0.25000000  0.48674200  0.99316600  1
  O  O49  1  0.75000000  0.04313200  0.73066100  1
  O  O50  1  0.75000000  0.45686800  0.23066100  1
  O  O51  1  0.25000000  0.54313200  0.76933900  1
  O  O52  1  0.25000000  0.01325800  0.49316600  1
  O  O53  1  0.75000000  0.98674200  0.50683400  1
  O  O54  1  0.75000000  0.51325800  0.00683400  1
  O  O55  1  0.25000000  0.95686800  0.26933900  1
