# generated using pymatgen
data_CaNiF6
_symmetry_space_group_name_H-M   'P 1'
_cell_length_a   5.65941337
_cell_length_b   5.65941337
_cell_length_c   5.65941387
_cell_angle_alpha   58.19904903
_cell_angle_beta   58.19904903
_cell_angle_gamma   58.19905093
_symmetry_Int_Tables_number   1
_chemical_formula_structural   CaNiF6
_chemical_formula_sum   'Ca1 Ni1 F6'
_cell_volume   122.88444883
_cell_formula_units_Z   1
loop_
 _symmetry_equiv_pos_site_id
 _symmetry_equiv_pos_as_xyz
  1  'x, y, z'
loop_
 _atom_site_type_symbol
 _atom_site_label
 _atom_site_symmetry_multiplicity
 _atom_site_fract_x
 _atom_site_fract_y
 _atom_site_fract_z
 _atom_site_occupancy
  Ca  Ca0  1  0.50000000  0.50000000  0.50000000  1
  Ni  Ni1  1  0.00000000  0.00000000  0.00000000  1
  F  F2  1  0.68946300  0.87305100  0.21600600  1
  F  F3  1  0.87305100  0.21600600  0.68946300  1
  F  F4  1  0.78399400  0.31053700  0.12694900  1
  F  F5  1  0.12694900  0.78399400  0.31053700  1
  F  F6  1  0.31053700  0.12694900  0.78399400  1
  F  F7  1  0.21600600  0.68946300  0.87305100  1
