# generated using pymatgen
data_Ca(NiO2)2
_symmetry_space_group_name_H-M   'P 1'
_cell_length_a   5.14256075
_cell_length_b   5.72094022
_cell_length_c   11.02057038
_cell_angle_alpha   92.54445716
_cell_angle_beta   89.89407122
_cell_angle_gamma   89.87562165
_symmetry_Int_Tables_number   1
_chemical_formula_structural   Ca(NiO2)2
_chemical_formula_sum   'Ca4 Ni8 O16'
_cell_volume   323.90725383
_cell_formula_units_Z   4
loop_
 _symmetry_equiv_pos_site_id
 _symmetry_equiv_pos_as_xyz
  1  'x, y, z'
loop_
 _atom_site_type_symbol
 _atom_site_label
 _atom_site_symmetry_multiplicity
 _atom_site_fract_x
 _atom_site_fract_y
 _atom_site_fract_z
 _atom_site_occupancy
  Ca  Ca0  1  0.84155800  0.24693900  0.75014200  1
  Ca  Ca1  1  0.15946200  0.75327600  0.25001000  1
  Ca  Ca2  1  0.54586000  0.25366400  0.25003000  1
  Ca  Ca3  1  0.45396300  0.74630900  0.75002300  1
  Ni  Ni4  1  0.50564900  0.75108600  0.49282300  1
  Ni  Ni5  1  0.50592500  0.74932100  0.00691200  1
  Ni  Ni6  1  0.49449400  0.24884300  0.50732000  1
  Ni  Ni7  1  0.49379300  0.25075400  0.99301800  1
  Ni  Ni8  1  0.00013200  0.49995600  0.50001300  1
  Ni  Ni9  1  0.99981600  0.99983300  0.99994600  1
  Ni  Ni10  1  0.00003500  0.00011700  0.50006100  1
  Ni  Ni11  1  0.99984100  0.50015000  0.99988900  1
  O  O12  1  0.84525900  0.73969500  0.40975100  1
  O  O13  1  0.84651500  0.75948100  0.09072000  1
  O  O14  1  0.15470200  0.26030900  0.59033400  1
  O  O15  1  0.15407500  0.24034800  0.90921700  1
  O  O16  1  0.17159400  0.75850300  0.58357900  1
  O  O17  1  0.17062500  0.74167000  0.91539100  1
  O  O18  1  0.82847800  0.24143800  0.41643000  1
  O  O19  1  0.82813400  0.25831000  0.08402100  1
  O  O20  1  0.64819200  0.48696600  0.60596100  1
  O  O21  1  0.64642000  0.01099800  0.89488900  1
  O  O22  1  0.34906200  0.01718300  0.39637200  1
  O  O23  1  0.35066000  0.48493300  0.10306800  1
  O  O24  1  0.35197400  0.51287300  0.39418000  1
  O  O25  1  0.35308700  0.98788400  0.10545500  1
  O  O26  1  0.65113500  0.98292300  0.60382500  1
  O  O27  1  0.64956000  0.51624000  0.89661800  1
