# generated using pymatgen
data_BaZnMoF7
_symmetry_space_group_name_H-M   'P 1'
_cell_length_a   10.25004400
_cell_length_b   5.78530800
_cell_length_c   9.91071612
_cell_angle_alpha   87.34867095
_cell_angle_beta   90.00000000
_cell_angle_gamma   90.00000000
_symmetry_Int_Tables_number   1
_chemical_formula_structural   BaZnMoF7
_chemical_formula_sum   'Ba4 Zn4 Mo4 F28'
_cell_volume   587.07299444
_cell_formula_units_Z   4
loop_
 _symmetry_equiv_pos_site_id
 _symmetry_equiv_pos_as_xyz
  1  'x, y, z'
loop_
 _atom_site_type_symbol
 _atom_site_label
 _atom_site_symmetry_multiplicity
 _atom_site_fract_x
 _atom_site_fract_y
 _atom_site_fract_z
 _atom_site_occupancy
  Ba  Ba0  1  0.32335700  0.73573500  0.49712000  1
  Ba  Ba1  1  0.82335700  0.26426500  0.00288000  1
  Ba  Ba2  1  0.67664300  0.26426500  0.50288000  1
  Ba  Ba3  1  0.17664300  0.73573500  0.99712000  1
  Zn  Zn4  1  0.39704500  0.30848300  0.80934600  1
  Zn  Zn5  1  0.89704500  0.69151700  0.69065400  1
  Zn  Zn6  1  0.10295500  0.30848300  0.30934600  1
  Zn  Zn7  1  0.60295500  0.69151700  0.19065400  1
  Mo  Mo8  1  0.61131900  0.80469600  0.81466500  1
  Mo  Mo9  1  0.38868100  0.19530400  0.18533500  1
  Mo  Mo10  1  0.88868100  0.80469600  0.31466500  1
  Mo  Mo11  1  0.11131900  0.19530400  0.68533500  1
  F  F12  1  0.44731000  0.87155100  0.11890200  1
  F  F13  1  0.05989800  0.63075500  0.37591200  1
  F  F14  1  0.71150600  0.50765400  0.75135500  1
  F  F15  1  0.28849400  0.49234600  0.24864500  1
  F  F16  1  0.46064300  0.10316700  0.37578900  1
  F  F17  1  0.80121500  0.73821900  0.50695900  1
  F  F18  1  0.78422300  0.97930700  0.75028200  1
  F  F19  1  0.96064300  0.89683300  0.12421100  1
  F  F20  1  0.44010200  0.63075500  0.87591200  1
  F  F21  1  0.21150600  0.49234600  0.74864500  1
  F  F22  1  0.05269000  0.87155100  0.61890200  1
  F  F23  1  0.55269000  0.12844900  0.88109800  1
  F  F24  1  0.28422300  0.02069300  0.74971800  1
  F  F25  1  0.95800300  0.60502300  0.87304400  1
  F  F26  1  0.53935700  0.89683300  0.62421100  1
  F  F27  1  0.03935700  0.10316700  0.87578900  1
  F  F28  1  0.21577700  0.02069300  0.24971800  1
  F  F29  1  0.94731000  0.12844900  0.38109800  1
  F  F30  1  0.45800300  0.39497700  0.62695600  1
  F  F31  1  0.94010200  0.36924500  0.62408800  1
  F  F32  1  0.04199700  0.39497700  0.12695600  1
  F  F33  1  0.71577700  0.97930700  0.25028200  1
  F  F34  1  0.54199700  0.60502300  0.37304400  1
  F  F35  1  0.30121500  0.26178100  0.99304100  1
  F  F36  1  0.19878500  0.26178100  0.49304100  1
  F  F37  1  0.69878500  0.73821900  0.00695900  1
  F  F38  1  0.55989800  0.36924500  0.12408800  1
  F  F39  1  0.78849400  0.50765400  0.25135500  1
