# generated using pymatgen
data_CaNi(PO3)4
_symmetry_space_group_name_H-M   'P 1'
_cell_length_a   7.49494100
_cell_length_b   7.49494100
_cell_length_c   10.12460988
_cell_angle_alpha   68.03399220
_cell_angle_beta   68.03399220
_cell_angle_gamma   71.42161592
_symmetry_Int_Tables_number   1
_chemical_formula_structural   CaNi(PO3)4
_chemical_formula_sum   'Ca2 Ni2 P8 O24'
_cell_volume   478.49120555
_cell_formula_units_Z   2
loop_
 _symmetry_equiv_pos_site_id
 _symmetry_equiv_pos_as_xyz
  1  'x, y, z'
loop_
 _atom_site_type_symbol
 _atom_site_label
 _atom_site_symmetry_multiplicity
 _atom_site_fract_x
 _atom_site_fract_y
 _atom_site_fract_z
 _atom_site_occupancy
  Ca  Ca0  1  0.95287500  0.04712500  0.25000000  1
  Ca  Ca1  1  0.04712500  0.95287500  0.75000000  1
  Ni  Ni2  1  0.00000000  0.50000000  0.00000000  1
  Ni  Ni3  1  0.50000000  0.00000000  0.50000000  1
  P  P4  1  0.69684100  0.68039200  0.30553300  1
  P  P5  1  0.31960800  0.30315900  0.19446700  1
  P  P6  1  0.30315900  0.31960800  0.69446700  1
  P  P7  1  0.68039200  0.69684100  0.80553300  1
  P  P8  1  0.72686000  0.27962100  0.52553300  1
  P  P9  1  0.72037900  0.27314000  0.97446700  1
  P  P10  1  0.27314000  0.72037900  0.47446700  1
  P  P11  1  0.27962100  0.72686000  0.02553300  1
  O  O12  1  0.46950000  0.67446600  0.34322000  1
  O  O13  1  0.32553400  0.53050000  0.15678000  1
  O  O14  1  0.53050000  0.32553400  0.65678000  1
  O  O15  1  0.67446600  0.46950000  0.84322000  1
  O  O16  1  0.77039500  0.49526200  0.43318800  1
  O  O17  1  0.50473800  0.22960500  0.06681200  1
  O  O18  1  0.22960500  0.50473800  0.56681200  1
  O  O19  1  0.49526200  0.77039500  0.93318800  1
  O  O20  1  0.80673800  0.65188500  0.15612700  1
  O  O21  1  0.34811500  0.19326200  0.34387300  1
  O  O22  1  0.19326200  0.34811500  0.84387300  1
  O  O23  1  0.65188500  0.80673800  0.65612700  1
  O  O24  1  0.70286000  0.86326000  0.33440500  1
  O  O25  1  0.13674000  0.29714000  0.16559500  1
  O  O26  1  0.29714000  0.13674000  0.66559500  1
  O  O27  1  0.86326000  0.70286000  0.83440500  1
  O  O28  1  0.68377800  0.19316900  0.42909700  1
  O  O29  1  0.80683100  0.31622200  0.07090300  1
  O  O30  1  0.31622200  0.80683100  0.57090300  1
  O  O31  1  0.19316900  0.68377800  0.92909700  1
  O  O32  1  0.89196900  0.16820900  0.58960100  1
  O  O33  1  0.83179100  0.10803100  0.91039900  1
  O  O34  1  0.10803100  0.83179100  0.41039900  1
  O  O35  1  0.16820900  0.89196900  0.08960100  1
