# generated using pymatgen
data_Mg(MnS2)4
_symmetry_space_group_name_H-M   'P 1'
_cell_length_a   7.28855878
_cell_length_b   7.28855878
_cell_length_c   7.28855873
_cell_angle_alpha   55.26671142
_cell_angle_beta   55.26671142
_cell_angle_gamma   55.26670943
_symmetry_Int_Tables_number   1
_chemical_formula_structural   Mg(MnS2)4
_chemical_formula_sum   'Mg1 Mn4 S8'
_cell_volume   243.66675420
_cell_formula_units_Z   1
loop_
 _symmetry_equiv_pos_site_id
 _symmetry_equiv_pos_as_xyz
  1  'x, y, z'
loop_
 _atom_site_type_symbol
 _atom_site_label
 _atom_site_symmetry_multiplicity
 _atom_site_fract_x
 _atom_site_fract_y
 _atom_site_fract_z
 _atom_site_occupancy
  Mg  Mg0  1  0.50000000  0.50000000  0.50000000  1
  Mn  Mn1  1  0.00000000  0.50000000  0.50000000  1
  Mn  Mn2  1  0.50000000  0.00000000  0.50000000  1
  Mn  Mn3  1  0.50000000  0.50000000  0.00000000  1
  Mn  Mn4  1  0.00000000  0.00000000  0.00000000  1
  S  S5  1  0.26858300  0.75670400  0.75670400  1
  S  S6  1  0.24329600  0.24329600  0.73141700  1
  S  S7  1  0.73141700  0.24329600  0.24329600  1
  S  S8  1  0.24329600  0.73141700  0.24329600  1
  S  S9  1  0.26243600  0.26243600  0.26243600  1
  S  S10  1  0.73756400  0.73756400  0.73756400  1
  S  S11  1  0.75670400  0.26858300  0.75670400  1
  S  S12  1  0.75670400  0.75670400  0.26858300  1
