# generated using pymatgen
data_CaV(PO3)4
_symmetry_space_group_name_H-M   'P 1'
_cell_length_a   7.60355008
_cell_length_b   7.60355008
_cell_length_c   10.38374699
_cell_angle_alpha   66.97082094
_cell_angle_beta   66.97082094
_cell_angle_gamma   70.51968565
_symmetry_Int_Tables_number   1
_chemical_formula_structural   CaV(PO3)4
_chemical_formula_sum   'Ca2 V2 P8 O24'
_cell_volume   496.77997430
_cell_formula_units_Z   2
loop_
 _symmetry_equiv_pos_site_id
 _symmetry_equiv_pos_as_xyz
  1  'x, y, z'
loop_
 _atom_site_type_symbol
 _atom_site_label
 _atom_site_symmetry_multiplicity
 _atom_site_fract_x
 _atom_site_fract_y
 _atom_site_fract_z
 _atom_site_occupancy
  Ca  Ca0  1  0.95563800  0.04436200  0.75000000  1
  Ca  Ca1  1  0.04436200  0.95563800  0.25000000  1
  V  V2  1  0.50000000  0.00000000  0.00000000  1
  V  V3  1  0.00000000  0.50000000  0.50000000  1
  P  P4  1  0.31978300  0.30321700  0.69282700  1
  P  P5  1  0.69678300  0.68021700  0.80717300  1
  P  P6  1  0.68021700  0.69678300  0.30717300  1
  P  P7  1  0.30321700  0.31978300  0.19282700  1
  P  P8  1  0.71913600  0.27055300  0.47612100  1
  P  P9  1  0.72944700  0.28086400  0.02387900  1
  P  P10  1  0.28086400  0.72944700  0.52387900  1
  P  P11  1  0.27055300  0.71913600  0.97612100  1
  O  O12  1  0.32279900  0.52981100  0.65321000  1
  O  O13  1  0.47018900  0.67720100  0.84679000  1
  O  O14  1  0.67720100  0.47018900  0.34679000  1
  O  O15  1  0.52981100  0.32279900  0.15321000  1
  O  O16  1  0.50262700  0.23082200  0.56523300  1
  O  O17  1  0.76917800  0.49737300  0.93476700  1
  O  O18  1  0.49737300  0.76917800  0.43476700  1
  O  O19  1  0.23082200  0.50262700  0.06523300  1
  O  O20  1  0.35085500  0.19557300  0.83881500  1
  O  O21  1  0.80442700  0.64914500  0.66118500  1
  O  O22  1  0.64914500  0.80442700  0.16118500  1
  O  O23  1  0.19557300  0.35085500  0.33881500  1
  O  O24  1  0.13842100  0.29321500  0.66962900  1
  O  O25  1  0.70678500  0.86157900  0.83037100  1
  O  O26  1  0.86157900  0.70678500  0.33037100  1
  O  O27  1  0.29321500  0.13842100  0.16962900  1
  O  O28  1  0.80105400  0.30720300  0.57336600  1
  O  O29  1  0.69279700  0.19894600  0.92663400  1
  O  O30  1  0.19894600  0.69279700  0.42663400  1
  O  O31  1  0.30720300  0.80105400  0.07336500  1
  O  O32  1  0.83137900  0.10902100  0.41108300  1
  O  O33  1  0.89097900  0.16862100  0.08891700  1
  O  O34  1  0.16862100  0.89097900  0.58891700  1
  O  O35  1  0.10902100  0.83137900  0.91108300  1
