# generated using pymatgen
data_CaTiNiP2O9
_symmetry_space_group_name_H-M   'P 1'
_cell_length_a   6.49134000
_cell_length_b   7.51922200
_cell_length_c   14.28101000
_cell_angle_alpha   90.00000000
_cell_angle_beta   90.00000000
_cell_angle_gamma   90.00000000
_symmetry_Int_Tables_number   1
_chemical_formula_structural   CaTiNiP2O9
_chemical_formula_sum   'Ca4 Ti4 Ni4 P8 O36'
_cell_volume   697.05362088
_cell_formula_units_Z   4
loop_
 _symmetry_equiv_pos_site_id
 _symmetry_equiv_pos_as_xyz
  1  'x, y, z'
loop_
 _atom_site_type_symbol
 _atom_site_label
 _atom_site_symmetry_multiplicity
 _atom_site_fract_x
 _atom_site_fract_y
 _atom_site_fract_z
 _atom_site_occupancy
  Ca  Ca0  1  0.75000000  0.88218100  0.78088900  1
  Ca  Ca1  1  0.75000000  0.61781900  0.28088900  1
  Ca  Ca2  1  0.25000000  0.11781900  0.21911100  1
  Ca  Ca3  1  0.25000000  0.38218100  0.71911100  1
  Ti  Ti4  1  0.75000000  0.34446800  0.88331100  1
  Ti  Ti5  1  0.25000000  0.65553200  0.11668900  1
  Ti  Ti6  1  0.25000000  0.84446800  0.61668900  1
  Ti  Ti7  1  0.75000000  0.15553200  0.38331100  1
  Ni  Ni8  1  0.50000000  0.00000000  0.00000000  1
  Ni  Ni9  1  0.50000000  0.50000000  0.50000000  1
  Ni  Ni10  1  0.00000000  0.50000000  0.50000000  1
  Ni  Ni11  1  0.00000000  0.00000000  0.00000000  1
  P  P12  1  0.25000000  0.35021500  0.93759400  1
  P  P13  1  0.75000000  0.64978500  0.06240600  1
  P  P14  1  0.75000000  0.85021500  0.56240600  1
  P  P15  1  0.25000000  0.14978500  0.43759400  1
  P  P16  1  0.75000000  0.39143100  0.69167100  1
  P  P17  1  0.25000000  0.60856900  0.30832900  1
  P  P18  1  0.25000000  0.89143100  0.80832900  1
  P  P19  1  0.75000000  0.10856900  0.19167100  1
  O  O20  1  0.05188600  0.60682900  0.36776200  1
  O  O21  1  0.55188600  0.39317100  0.63223800  1
  O  O22  1  0.94811400  0.10682900  0.13223800  1
  O  O23  1  0.44811400  0.89317100  0.86776200  1
  O  O24  1  0.94811400  0.39317100  0.63223800  1
  O  O25  1  0.44811400  0.60682900  0.36776200  1
  O  O26  1  0.05188600  0.89317100  0.86776200  1
  O  O27  1  0.55188600  0.10682900  0.13223800  1
  O  O28  1  0.25000000  0.33299100  0.48479000  1
  O  O29  1  0.75000000  0.66700900  0.51521000  1
  O  O30  1  0.75000000  0.83299100  0.01521000  1
  O  O31  1  0.25000000  0.16700900  0.98479000  1
  O  O32  1  0.75000000  0.14109900  0.94184700  1
  O  O33  1  0.25000000  0.85890100  0.05815300  1
  O  O34  1  0.25000000  0.64109900  0.55815300  1
  O  O35  1  0.75000000  0.35890100  0.44184700  1
  O  O36  1  0.75000000  0.21965800  0.75590700  1
  O  O37  1  0.25000000  0.78034200  0.24409300  1
  O  O38  1  0.25000000  0.71965800  0.74409300  1
  O  O39  1  0.75000000  0.28034200  0.25590700  1
  O  O40  1  0.43825900  0.12987700  0.37094600  1
  O  O41  1  0.93825900  0.87012300  0.62905400  1
  O  O42  1  0.56174100  0.62987700  0.12905400  1
  O  O43  1  0.06174100  0.37012300  0.87094600  1
  O  O44  1  0.56174100  0.87012300  0.62905400  1
  O  O45  1  0.06174100  0.12987700  0.37094600  1
  O  O46  1  0.43825900  0.37012300  0.87094600  1
  O  O47  1  0.93825900  0.62987700  0.12905400  1
  O  O48  1  0.75000000  0.95790000  0.26727800  1
  O  O49  1  0.25000000  0.04210000  0.73272200  1
  O  O50  1  0.25000000  0.45790000  0.23272200  1
  O  O51  1  0.75000000  0.54210000  0.76727800  1
  O  O52  1  0.75000000  0.99404500  0.48657800  1
  O  O53  1  0.25000000  0.00595500  0.51342200  1
  O  O54  1  0.25000000  0.49404500  0.01342200  1
  O  O55  1  0.75000000  0.50595500  0.98657800  1
