# generated using pymatgen
data_CaHo(MoO3)2
_symmetry_space_group_name_H-M   'P 1'
_cell_length_a   5.79150200
_cell_length_b   5.47916900
_cell_length_c   9.66908196
_cell_angle_alpha   56.05920491
_cell_angle_beta   90.00000000
_cell_angle_gamma   90.00000000
_symmetry_Int_Tables_number   1
_chemical_formula_structural   CaHo(MoO3)2
_chemical_formula_sum   'Ca2 Ho2 Mo4 O12'
_cell_volume   254.54684632
_cell_formula_units_Z   2
loop_
 _symmetry_equiv_pos_site_id
 _symmetry_equiv_pos_as_xyz
  1  'x, y, z'
loop_
 _atom_site_type_symbol
 _atom_site_label
 _atom_site_symmetry_multiplicity
 _atom_site_fract_x
 _atom_site_fract_y
 _atom_site_fract_z
 _atom_site_occupancy
  Ca  Ca0  1  0.69553900  0.26349500  0.24923700  1
  Ca  Ca1  1  0.30446100  0.26349500  0.74923700  1
  Ho  Ho2  1  0.18476400  0.72571900  0.25102300  1
  Ho  Ho3  1  0.81523600  0.72571900  0.75102300  1
  Mo  Mo4  1  0.74807500  0.99949300  0.99997600  1
  Mo  Mo5  1  0.74720800  0.49897800  0.49952500  1
  Mo  Mo6  1  0.25192500  0.99949300  0.49997600  1
  Mo  Mo7  1  0.25279200  0.49897800  0.99952500  1
  O  O8  1  0.69843100  0.12009400  0.74513600  1
  O  O9  1  0.43454800  0.74401300  0.06486900  1
  O  O10  1  0.44041900  0.38799900  0.43766600  1
  O  O11  1  0.96011600  0.62715000  0.06591000  1
  O  O12  1  0.94935800  0.26987900  0.43649800  1
  O  O13  1  0.18766600  0.85991600  0.75405700  1
  O  O14  1  0.30156900  0.12009400  0.24513600  1
  O  O15  1  0.56545200  0.74401300  0.56486900  1
  O  O16  1  0.55958100  0.38799900  0.93766600  1
  O  O17  1  0.05064200  0.26987900  0.93649800  1
  O  O18  1  0.03988400  0.62715000  0.56591000  1
  O  O19  1  0.81233400  0.85991600  0.25405700  1
