# generated using pymatgen
data_MgCuF5
_symmetry_space_group_name_H-M   'P 1'
_cell_length_a   5.24904873
_cell_length_b   5.24904873
_cell_length_c   7.46130250
_cell_angle_alpha   69.16948384
_cell_angle_beta   69.16948384
_cell_angle_gamma   71.54207728
_symmetry_Int_Tables_number   1
_chemical_formula_structural   MgCuF5
_chemical_formula_sum   'Mg2 Cu2 F10'
_cell_volume   175.27502943
_cell_formula_units_Z   2
loop_
 _symmetry_equiv_pos_site_id
 _symmetry_equiv_pos_as_xyz
  1  'x, y, z'
loop_
 _atom_site_type_symbol
 _atom_site_label
 _atom_site_symmetry_multiplicity
 _atom_site_fract_x
 _atom_site_fract_y
 _atom_site_fract_z
 _atom_site_occupancy
  Mg  Mg0  1  0.53961800  0.46038200  0.25000000  1
  Mg  Mg1  1  0.46038200  0.53961800  0.75000000  1
  Cu  Cu2  1  0.00000000  0.00000000  0.50000000  1
  Cu  Cu3  1  0.00000000  0.00000000  0.00000000  1
  F  F4  1  0.11185000  0.88815000  0.75000000  1
  F  F5  1  0.88815000  0.11185000  0.25000000  1
  F  F6  1  0.22465000  0.26764000  0.87639900  1
  F  F7  1  0.73236000  0.77535000  0.62360100  1
  F  F8  1  0.70998400  0.32104400  0.53903100  1
  F  F9  1  0.67895600  0.29001600  0.96096900  1
  F  F10  1  0.29001600  0.67895600  0.46096900  1
  F  F11  1  0.32104400  0.70998400  0.03903100  1
  F  F12  1  0.26764000  0.22465000  0.37639900  1
  F  F13  1  0.77535000  0.73236000  0.12360100  1
