# generated using pymatgen
data_CaCr2P2O9
_symmetry_space_group_name_H-M   'P 1'
_cell_length_a   6.44634000
_cell_length_b   7.44741600
_cell_length_c   14.31877800
_cell_angle_alpha   90.00000000
_cell_angle_beta   90.00000000
_cell_angle_gamma   90.00000000
_symmetry_Int_Tables_number   1
_chemical_formula_structural   CaCr2P2O9
_chemical_formula_sum   'Ca4 Cr8 P8 O36'
_cell_volume   687.42413694
_cell_formula_units_Z   4
loop_
 _symmetry_equiv_pos_site_id
 _symmetry_equiv_pos_as_xyz
  1  'x, y, z'
loop_
 _atom_site_type_symbol
 _atom_site_label
 _atom_site_symmetry_multiplicity
 _atom_site_fract_x
 _atom_site_fract_y
 _atom_site_fract_z
 _atom_site_occupancy
  Ca  Ca0  1  0.75000000  0.89229300  0.77962500  1
  Ca  Ca1  1  0.75000000  0.60770700  0.27962500  1
  Ca  Ca2  1  0.25000000  0.39229300  0.72037500  1
  Ca  Ca3  1  0.25000000  0.10770700  0.22037500  1
  Cr  Cr4  1  0.75000000  0.35104400  0.87827800  1
  Cr  Cr5  1  0.25000000  0.64895600  0.12172200  1
  Cr  Cr6  1  0.25000000  0.85104400  0.62172200  1
  Cr  Cr7  1  0.75000000  0.14895600  0.37827800  1
  Cr  Cr8  1  0.50000000  0.00000000  0.00000000  1
  Cr  Cr9  1  0.50000000  0.50000000  0.50000000  1
  Cr  Cr10  1  0.00000000  0.50000000  0.50000000  1
  Cr  Cr11  1  0.00000000  0.00000000  0.00000000  1
  P  P12  1  0.25000000  0.36029100  0.93446700  1
  P  P13  1  0.75000000  0.63970900  0.06553300  1
  P  P14  1  0.75000000  0.86029100  0.56553300  1
  P  P15  1  0.25000000  0.13970900  0.43446700  1
  P  P16  1  0.75000000  0.39117600  0.69108000  1
  P  P17  1  0.75000000  0.10882400  0.19108000  1
  P  P18  1  0.25000000  0.89117600  0.80892000  1
  P  P19  1  0.25000000  0.60882400  0.30892000  1
  O  O20  1  0.05223600  0.60400900  0.37039800  1
  O  O21  1  0.55223600  0.39599100  0.62960200  1
  O  O22  1  0.94776400  0.10400900  0.12960200  1
  O  O23  1  0.44776400  0.89599100  0.87039800  1
  O  O24  1  0.94776400  0.39599100  0.62960200  1
  O  O25  1  0.44776400  0.60400900  0.37039800  1
  O  O26  1  0.05223600  0.89599100  0.87039800  1
  O  O27  1  0.55223600  0.10400900  0.12960200  1
  O  O28  1  0.25000000  0.33026500  0.48294400  1
  O  O29  1  0.75000000  0.66973600  0.51705600  1
  O  O30  1  0.75000000  0.83026400  0.01705600  1
  O  O31  1  0.25000000  0.16973500  0.98294400  1
  O  O32  1  0.75000000  0.12429500  0.94393200  1
  O  O33  1  0.25000000  0.87570500  0.05606800  1
  O  O34  1  0.25000000  0.62429500  0.55606800  1
  O  O35  1  0.75000000  0.37570500  0.44393200  1
  O  O36  1  0.75000000  0.21745100  0.75213400  1
  O  O37  1  0.25000000  0.78254900  0.24786600  1
  O  O38  1  0.25000000  0.71745100  0.74786600  1
  O  O39  1  0.75000000  0.28254900  0.25213400  1
  O  O40  1  0.43801400  0.13280300  0.36706800  1
  O  O41  1  0.93801400  0.86719700  0.63293200  1
  O  O42  1  0.56198600  0.63280300  0.13293200  1
  O  O43  1  0.06198600  0.36719700  0.86706800  1
  O  O44  1  0.56198600  0.86719700  0.63293200  1
  O  O45  1  0.06198600  0.13280300  0.36706800  1
  O  O46  1  0.43801400  0.36719700  0.86706800  1
  O  O47  1  0.93801400  0.63280300  0.13293200  1
  O  O48  1  0.75000000  0.49689000  0.99191700  1
  O  O49  1  0.25000000  0.04312300  0.73382600  1
  O  O50  1  0.25000000  0.45687700  0.23382600  1
  O  O51  1  0.75000000  0.54312300  0.76617400  1
  O  O52  1  0.75000000  0.00311000  0.49191700  1
  O  O53  1  0.25000000  0.99689000  0.50808300  1
  O  O54  1  0.25000000  0.50311000  0.00808300  1
  O  O55  1  0.75000000  0.95687700  0.26617400  1
