# generated using pymatgen
data_CaFe3(P2O7)2
_symmetry_space_group_name_H-M   'P 1'
_cell_length_a   7.78143700
_cell_length_b   7.56659300
_cell_length_c   9.59935418
_cell_angle_alpha   68.15168463
_cell_angle_beta   90.00000000
_cell_angle_gamma   90.00000000
_symmetry_Int_Tables_number   1
_chemical_formula_structural   CaFe3(P2O7)2
_chemical_formula_sum   'Ca2 Fe6 P8 O28'
_cell_volume   524.60305615
_cell_formula_units_Z   2
loop_
 _symmetry_equiv_pos_site_id
 _symmetry_equiv_pos_as_xyz
  1  'x, y, z'
loop_
 _atom_site_type_symbol
 _atom_site_label
 _atom_site_symmetry_multiplicity
 _atom_site_fract_x
 _atom_site_fract_y
 _atom_site_fract_z
 _atom_site_occupancy
  Ca  Ca0  1  0.00000000  0.50000000  0.00000000  1
  Ca  Ca1  1  0.50000000  0.50000000  0.50000000  1
  Fe  Fe2  1  0.12432000  0.81007400  0.52685400  1
  Fe  Fe3  1  0.62432000  0.18992600  0.97314600  1
  Fe  Fe4  1  0.87568000  0.18992600  0.47314600  1
  Fe  Fe5  1  0.37568000  0.81007400  0.02685400  1
  Fe  Fe6  1  0.00000000  0.00000000  0.00000000  1
  Fe  Fe7  1  0.50000000  0.00000000  0.50000000  1
  P  P8  1  0.93603000  0.40270800  0.70454500  1
  P  P9  1  0.43603000  0.59729200  0.79545500  1
  P  P10  1  0.06397000  0.59729200  0.29545500  1
  P  P11  1  0.56397000  0.40270800  0.20454500  1
  P  P12  1  0.20238300  0.12246000  0.68966300  1
  P  P13  1  0.70238300  0.87754000  0.81033700  1
  P  P14  1  0.79761700  0.87754000  0.31033700  1
  P  P15  1  0.29761700  0.12246000  0.18966300  1
  O  O16  1  0.37387300  0.17432600  0.60736700  1
  O  O17  1  0.87387300  0.82567400  0.89263300  1
  O  O18  1  0.62612700  0.82567400  0.39263300  1
  O  O19  1  0.12612700  0.17432600  0.10736700  1
  O  O20  1  0.38658400  0.71847400  0.62907800  1
  O  O21  1  0.88658400  0.28152600  0.87092200  1
  O  O22  1  0.61341600  0.28152600  0.37092200  1
  O  O23  1  0.11341600  0.71847400  0.12907800  1
  O  O24  1  0.80688100  0.38169900  0.59290800  1
  O  O25  1  0.30688100  0.61830100  0.90709200  1
  O  O26  1  0.19311900  0.61830100  0.40709200  1
  O  O27  1  0.69311900  0.38169900  0.09290800  1
  O  O28  1  0.12012200  0.32447000  0.67390700  1
  O  O29  1  0.62012200  0.67553000  0.82609300  1
  O  O30  1  0.87987800  0.67553000  0.32609300  1
  O  O31  1  0.37987800  0.32447000  0.17390700  1
  O  O32  1  0.51909200  0.60292800  0.19477000  1
  O  O33  1  0.01909200  0.39707200  0.30523000  1
  O  O34  1  0.48090800  0.39707200  0.80523000  1
  O  O35  1  0.98090800  0.60292800  0.69477000  1
  O  O36  1  0.78858100  0.98788400  0.13944600  1
  O  O37  1  0.28858100  0.01211600  0.36055400  1
  O  O38  1  0.21141900  0.01211600  0.86055400  1
  O  O39  1  0.71141900  0.98788400  0.63944600  1
  O  O40  1  0.41979500  0.03188000  0.11076500  1
  O  O41  1  0.91979500  0.96812000  0.38923500  1
  O  O42  1  0.58020500  0.96812000  0.88923500  1
  O  O43  1  0.08020500  0.03188000  0.61076500  1
