# generated using pymatgen
data_Ba2CaMn2CuF14
_symmetry_space_group_name_H-M   'P 1'
_cell_length_a   7.44975996
_cell_length_b   7.44975996
_cell_length_c   15.10340360
_cell_angle_alpha   86.75693850
_cell_angle_beta   86.75693850
_cell_angle_gamma   43.17302591
_symmetry_Int_Tables_number   1
_chemical_formula_structural   Ba2CaMn2CuF14
_chemical_formula_sum   'Ba4 Ca2 Mn4 Cu2 F28'
_cell_volume   572.45276949
_cell_formula_units_Z   2
loop_
 _symmetry_equiv_pos_site_id
 _symmetry_equiv_pos_as_xyz
  1  'x, y, z'
loop_
 _atom_site_type_symbol
 _atom_site_label
 _atom_site_symmetry_multiplicity
 _atom_site_fract_x
 _atom_site_fract_y
 _atom_site_fract_z
 _atom_site_occupancy
  Ba  Ba0  1  0.74300700  0.88107600  0.62531700  1
  Ba  Ba1  1  0.88107600  0.74300700  0.12531700  1
  Ba  Ba2  1  0.25699300  0.11892400  0.37468300  1
  Ba  Ba3  1  0.11892400  0.25699300  0.87468300  1
  Ca  Ca4  1  0.41913800  0.58086200  0.75000000  1
  Ca  Ca5  1  0.58086200  0.41913800  0.25000000  1
  Mn  Mn6  1  0.85435600  0.89986100  0.87651800  1
  Mn  Mn7  1  0.14564400  0.10013900  0.12348200  1
  Mn  Mn8  1  0.89986100  0.85435600  0.37651800  1
  Mn  Mn9  1  0.10013900  0.14564400  0.62348200  1
  Cu  Cu10  1  0.50000000  0.50000000  0.00000000  1
  Cu  Cu11  1  0.50000000  0.50000000  0.50000000  1
  F  F12  1  0.93493900  0.07454900  0.34432700  1
  F  F13  1  0.60083100  0.11725900  0.45304900  1
  F  F14  1  0.39916900  0.88274100  0.54695100  1
  F  F15  1  0.15695900  0.34908200  0.59642700  1
  F  F16  1  0.50912100  0.38340000  0.61802900  1
  F  F17  1  0.61660000  0.49087900  0.88197100  1
  F  F18  1  0.11725900  0.60083100  0.95304900  1
  F  F19  1  0.92545100  0.06506100  0.15567300  1
  F  F20  1  0.05652000  0.62150900  0.77239300  1
  F  F21  1  0.84304100  0.65091800  0.40357300  1
  F  F22  1  0.59354200  0.16539800  0.79183300  1
  F  F23  1  0.65091800  0.84304100  0.90357300  1
  F  F24  1  0.16539800  0.59354200  0.29183300  1
  F  F25  1  0.40645800  0.83460200  0.20816700  1
  F  F26  1  0.38340000  0.50912100  0.11802900  1
  F  F27  1  0.94348000  0.37849100  0.22760700  1
  F  F28  1  0.30437700  0.86591700  0.01106100  1
  F  F29  1  0.06506100  0.92545100  0.65567300  1
  F  F30  1  0.69562300  0.13408300  0.98893900  1
  F  F31  1  0.86591700  0.30437700  0.51106100  1
  F  F32  1  0.88274100  0.39916900  0.04695100  1
  F  F33  1  0.83460200  0.40645800  0.70816700  1
  F  F34  1  0.62150900  0.05652000  0.27239300  1
  F  F35  1  0.13408300  0.69562300  0.48893900  1
  F  F36  1  0.49087900  0.61660000  0.38197100  1
  F  F37  1  0.07454900  0.93493900  0.84432700  1
  F  F38  1  0.37849100  0.94348000  0.72760700  1
  F  F39  1  0.34908200  0.15695900  0.09642700  1
