# generated using pymatgen
data_Mg(CuO2)2
_symmetry_space_group_name_H-M   'P 1'
_cell_length_a   3.09475600
_cell_length_b   9.15890200
_cell_length_c   9.94971000
_cell_angle_alpha   90.00000000
_cell_angle_beta   90.00000000
_cell_angle_gamma   90.00000000
_symmetry_Int_Tables_number   1
_chemical_formula_structural   Mg(CuO2)2
_chemical_formula_sum   'Mg4 Cu8 O16'
_cell_volume   282.02022091
_cell_formula_units_Z   4
loop_
 _symmetry_equiv_pos_site_id
 _symmetry_equiv_pos_as_xyz
  1  'x, y, z'
loop_
 _atom_site_type_symbol
 _atom_site_label
 _atom_site_symmetry_multiplicity
 _atom_site_fract_x
 _atom_site_fract_y
 _atom_site_fract_z
 _atom_site_occupancy
  Mg  Mg0  1  0.86230500  0.25000000  0.84695600  1
  Mg  Mg1  1  0.86230500  0.75000000  0.65304400  1
  Mg  Mg2  1  0.13769500  0.25000000  0.34695600  1
  Mg  Mg3  1  0.13769500  0.75000000  0.15304400  1
  Cu  Cu4  1  0.34259100  0.06997500  0.61458100  1
  Cu  Cu5  1  0.34259100  0.56997500  0.88541900  1
  Cu  Cu6  1  0.65740900  0.56997500  0.38541900  1
  Cu  Cu7  1  0.34259100  0.93002500  0.88541900  1
  Cu  Cu8  1  0.65740900  0.93002500  0.38541900  1
  Cu  Cu9  1  0.34259100  0.43002500  0.61458100  1
  Cu  Cu10  1  0.65740900  0.43002500  0.11458100  1
  Cu  Cu11  1  0.65740900  0.06997500  0.11458100  1
  O  O12  1  0.62870800  0.38255600  0.45507200  1
  O  O13  1  0.37129200  0.61744400  0.54492800  1
  O  O14  1  0.99456800  0.50000000  0.75000000  1
  O  O15  1  0.37129200  0.38255600  0.95507200  1
  O  O16  1  0.37129200  0.11744400  0.95507200  1
  O  O17  1  0.35578800  0.75000000  0.79862900  1
  O  O18  1  0.62870800  0.61744400  0.04492800  1
  O  O19  1  0.64421200  0.75000000  0.29862900  1
  O  O20  1  0.99456800  0.00000000  0.75000000  1
  O  O21  1  0.00543200  0.50000000  0.25000000  1
  O  O22  1  0.62870800  0.11744400  0.45507200  1
  O  O23  1  0.64421200  0.25000000  0.20137100  1
  O  O24  1  0.35578800  0.25000000  0.70137100  1
  O  O25  1  0.00543200  0.00000000  0.25000000  1
  O  O26  1  0.62870800  0.88255600  0.04492800  1
  O  O27  1  0.37129200  0.88255600  0.54492800  1
