# generated using pymatgen
data_CaPrTi2O6
_symmetry_space_group_name_H-M   'P 1'
_cell_length_a   5.50420100
_cell_length_b   5.55026100
_cell_length_c   7.83562600
_cell_angle_alpha   90.00000000
_cell_angle_beta   90.00000000
_cell_angle_gamma   90.00000000
_symmetry_Int_Tables_number   1
_chemical_formula_structural   CaPrTi2O6
_chemical_formula_sum   'Ca2 Pr2 Ti4 O12'
_cell_volume   239.37643221
_cell_formula_units_Z   2
loop_
 _symmetry_equiv_pos_site_id
 _symmetry_equiv_pos_as_xyz
  1  'x, y, z'
loop_
 _atom_site_type_symbol
 _atom_site_label
 _atom_site_symmetry_multiplicity
 _atom_site_fract_x
 _atom_site_fract_y
 _atom_site_fract_z
 _atom_site_occupancy
  Ca  Ca0  1  0.48958800  0.20731900  0.00000000  1
  Ca  Ca1  1  0.98958800  0.79268100  0.50000000  1
  Pr  Pr2  1  0.00966600  0.70890400  0.00000000  1
  Pr  Pr3  1  0.50966600  0.29109600  0.50000000  1
  Ti  Ti4  1  0.00045000  0.24829900  0.75037100  1
  Ti  Ti5  1  0.00045000  0.24829900  0.24962900  1
  Ti  Ti6  1  0.50045000  0.75170100  0.25037100  1
  Ti  Ti7  1  0.50045000  0.75170100  0.74962900  1
  O  O8  1  0.07783100  0.22948800  0.50000000  1
  O  O9  1  0.21483700  0.96537800  0.79191100  1
  O  O10  1  0.21483700  0.96537800  0.20808900  1
  O  O11  1  0.28680900  0.46398600  0.20695800  1
  O  O12  1  0.28680900  0.46398600  0.79304200  1
  O  O13  1  0.41818700  0.73198900  0.50000000  1
  O  O14  1  0.57783100  0.77051200  0.00000000  1
  O  O15  1  0.71483700  0.03462200  0.70808900  1
  O  O16  1  0.71483700  0.03462200  0.29191100  1
  O  O17  1  0.78680900  0.53601400  0.70695800  1
  O  O18  1  0.78680900  0.53601400  0.29304200  1
  O  O19  1  0.91818700  0.26801100  0.00000000  1
