# generated using pymatgen
data_MgFe(PO3)4
_symmetry_space_group_name_H-M   'P 1'
_cell_length_a   7.34416539
_cell_length_b   7.34416539
_cell_length_c   10.13848512
_cell_angle_alpha   66.65790197
_cell_angle_beta   66.65790197
_cell_angle_gamma   69.99331029
_symmetry_Int_Tables_number   1
_chemical_formula_structural   MgFe(PO3)4
_chemical_formula_sum   'Mg2 Fe2 P8 O24'
_cell_volume   449.73435736
_cell_formula_units_Z   2
loop_
 _symmetry_equiv_pos_site_id
 _symmetry_equiv_pos_as_xyz
  1  'x, y, z'
loop_
 _atom_site_type_symbol
 _atom_site_label
 _atom_site_symmetry_multiplicity
 _atom_site_fract_x
 _atom_site_fract_y
 _atom_site_fract_z
 _atom_site_occupancy
  Mg  Mg0  1  0.95523100  0.04476900  0.25000000  1
  Mg  Mg1  1  0.04476900  0.95523100  0.75000000  1
  Fe  Fe2  1  0.00000000  0.50000000  0.00000000  1
  Fe  Fe3  1  0.50000000  0.00000000  0.50000000  1
  P  P4  1  0.70411600  0.68498100  0.30569000  1
  P  P5  1  0.31501900  0.29588400  0.19431000  1
  P  P6  1  0.29588400  0.31501900  0.69431000  1
  P  P7  1  0.68498100  0.70411600  0.80569000  1
  P  P8  1  0.74698900  0.26964100  0.52186500  1
  P  P9  1  0.73035900  0.25301100  0.97813500  1
  P  P10  1  0.25301100  0.73035900  0.47813500  1
  P  P11  1  0.26964100  0.74698900  0.02186500  1
  O  O12  1  0.46760500  0.68689900  0.35228500  1
  O  O13  1  0.31310100  0.53239500  0.14771500  1
  O  O14  1  0.53239500  0.31310100  0.64771500  1
  O  O15  1  0.68689900  0.46760500  0.85228500  1
  O  O16  1  0.78531700  0.49608800  0.43438200  1
  O  O17  1  0.50391200  0.21468300  0.06561800  1
  O  O18  1  0.21468300  0.50391200  0.56561800  1
  O  O19  1  0.49608800  0.78531700  0.93438200  1
  O  O20  1  0.80387300  0.64959500  0.15616500  1
  O  O21  1  0.35040500  0.19612700  0.34383500  1
  O  O22  1  0.19612700  0.35040500  0.84383500  1
  O  O23  1  0.64959500  0.80387300  0.65616500  1
  O  O24  1  0.72435300  0.87312400  0.32223500  1
  O  O25  1  0.12687600  0.27564700  0.17776500  1
  O  O26  1  0.27564700  0.12687600  0.67776500  1
  O  O27  1  0.87312400  0.72435300  0.82223500  1
  O  O28  1  0.72201100  0.18625800  0.41596200  1
  O  O29  1  0.81374200  0.27798900  0.08403800  1
  O  O30  1  0.27798900  0.81374200  0.58403800  1
  O  O31  1  0.18625800  0.72201100  0.91596200  1
  O  O32  1  0.90482900  0.15457700  0.59816300  1
  O  O33  1  0.84542300  0.09517100  0.90183700  1
  O  O34  1  0.09517100  0.84542300  0.40183700  1
  O  O35  1  0.15457700  0.90482900  0.09816300  1
