# generated using pymatgen
data_BaMgMoF7
_symmetry_space_group_name_H-M   'P 1'
_cell_length_a   10.22487500
_cell_length_b   5.74529500
_cell_length_c   9.93765073
_cell_angle_alpha   87.18487011
_cell_angle_beta   90.00000000
_cell_angle_gamma   90.00000000
_symmetry_Int_Tables_number   1
_chemical_formula_structural   BaMgMoF7
_chemical_formula_sum   'Ba4 Mg4 Mo4 F28'
_cell_volume   583.08201705
_cell_formula_units_Z   4
loop_
 _symmetry_equiv_pos_site_id
 _symmetry_equiv_pos_as_xyz
  1  'x, y, z'
loop_
 _atom_site_type_symbol
 _atom_site_label
 _atom_site_symmetry_multiplicity
 _atom_site_fract_x
 _atom_site_fract_y
 _atom_site_fract_z
 _atom_site_occupancy
  Ba  Ba0  1  0.32776600  0.73198600  0.49660500  1
  Ba  Ba1  1  0.82776600  0.26801400  0.00339500  1
  Ba  Ba2  1  0.67223400  0.26801400  0.50339500  1
  Ba  Ba3  1  0.17223400  0.73198600  0.99660500  1
  Mg  Mg4  1  0.39261500  0.31129600  0.80988700  1
  Mg  Mg5  1  0.89261500  0.68870400  0.69011300  1
  Mg  Mg6  1  0.10738500  0.31129600  0.30988700  1
  Mg  Mg7  1  0.60738500  0.68870400  0.19011300  1
  Mo  Mo8  1  0.61126600  0.80658900  0.81477600  1
  Mo  Mo9  1  0.38873400  0.19341100  0.18522400  1
  Mo  Mo10  1  0.88873400  0.80658900  0.31477600  1
  Mo  Mo11  1  0.11126600  0.19341100  0.68522400  1
  F  F12  1  0.45336000  0.86836500  0.12395700  1
  F  F13  1  0.05901200  0.62437100  0.37430200  1
  F  F14  1  0.71762300  0.51465600  0.75004200  1
  F  F15  1  0.28237700  0.48534400  0.24995800  1
  F  F16  1  0.45894600  0.10462600  0.37598100  1
  F  F17  1  0.80424700  0.73914300  0.50792800  1
  F  F18  1  0.78681200  0.97287200  0.75041600  1
  F  F19  1  0.95894600  0.89537400  0.12401900  1
  F  F20  1  0.44098800  0.62437100  0.87430200  1
  F  F21  1  0.21762300  0.48534400  0.74995800  1
  F  F22  1  0.04664000  0.86836500  0.62395700  1
  F  F23  1  0.54664000  0.13163500  0.87604300  1
  F  F24  1  0.28681200  0.02712800  0.74958400  1
  F  F25  1  0.95875000  0.60497200  0.86875900  1
  F  F26  1  0.54105400  0.89537400  0.62401900  1
  F  F27  1  0.04105400  0.10462600  0.87598100  1
  F  F28  1  0.21318800  0.02712800  0.24958400  1
  F  F29  1  0.95336000  0.13163500  0.37604300  1
  F  F30  1  0.45875000  0.39502800  0.63124100  1
  F  F31  1  0.94098800  0.37562900  0.62569800  1
  F  F32  1  0.04125000  0.39502800  0.13124100  1
  F  F33  1  0.71318800  0.97287200  0.25041600  1
  F  F34  1  0.54125000  0.60497200  0.36875900  1
  F  F35  1  0.30424700  0.26085700  0.99207200  1
  F  F36  1  0.19575300  0.26085700  0.49207200  1
  F  F37  1  0.69575300  0.73914300  0.00792800  1
  F  F38  1  0.55901200  0.37562900  0.12569800  1
  F  F39  1  0.78237700  0.51465600  0.25004200  1
