# generated using pymatgen
data_CaPr(FeO3)2
_symmetry_space_group_name_H-M   'P 1'
_cell_length_a   5.47764600
_cell_length_b   5.54056400
_cell_length_c   7.76342200
_cell_angle_alpha   90.00000000
_cell_angle_beta   90.00000000
_cell_angle_gamma   90.00000000
_symmetry_Int_Tables_number   1
_chemical_formula_structural   CaPr(FeO3)2
_chemical_formula_sum   'Ca2 Pr2 Fe4 O12'
_cell_volume   235.61402141
_cell_formula_units_Z   2
loop_
 _symmetry_equiv_pos_site_id
 _symmetry_equiv_pos_as_xyz
  1  'x, y, z'
loop_
 _atom_site_type_symbol
 _atom_site_label
 _atom_site_symmetry_multiplicity
 _atom_site_fract_x
 _atom_site_fract_y
 _atom_site_fract_z
 _atom_site_occupancy
  Ca  Ca0  1  0.49112100  0.20829500  0.00000000  1
  Ca  Ca1  1  0.99112100  0.79170500  0.50000000  1
  Pr  Pr2  1  0.00987100  0.70899500  0.00000000  1
  Pr  Pr3  1  0.50987100  0.29100500  0.50000000  1
  Fe  Fe4  1  0.00050100  0.24794000  0.75032800  1
  Fe  Fe5  1  0.00050100  0.24794000  0.24967200  1
  Fe  Fe6  1  0.50050100  0.75206000  0.25032800  1
  Fe  Fe7  1  0.50050100  0.75206000  0.74967200  1
  O  O8  1  0.07757600  0.23071200  0.50000000  1
  O  O9  1  0.21406300  0.96298900  0.79081400  1
  O  O10  1  0.21406300  0.96298900  0.20918600  1
  O  O11  1  0.28632200  0.46283100  0.20667200  1
  O  O12  1  0.28632200  0.46283100  0.79332800  1
  O  O13  1  0.41967100  0.73176700  0.50000000  1
  O  O14  1  0.57757600  0.76928800  0.00000000  1
  O  O15  1  0.71406300  0.03701100  0.70918600  1
  O  O16  1  0.71406300  0.03701100  0.29081400  1
  O  O17  1  0.78632200  0.53716900  0.70667200  1
  O  O18  1  0.78632200  0.53716900  0.29332800  1
  O  O19  1  0.91967100  0.26823300  0.00000000  1
