# generated using pymatgen
data_BaMgCuF7
_symmetry_space_group_name_H-M   'P 1'
_cell_length_a   9.94281700
_cell_length_b   5.61262500
_cell_length_c   9.70701988
_cell_angle_alpha   86.80123235
_cell_angle_beta   90.00000000
_cell_angle_gamma   90.00000000
_symmetry_Int_Tables_number   1
_chemical_formula_structural   BaMgCuF7
_chemical_formula_sum   'Ba4 Mg4 Cu4 F28'
_cell_volume   540.85919549
_cell_formula_units_Z   4
loop_
 _symmetry_equiv_pos_site_id
 _symmetry_equiv_pos_as_xyz
  1  'x, y, z'
loop_
 _atom_site_type_symbol
 _atom_site_label
 _atom_site_symmetry_multiplicity
 _atom_site_fract_x
 _atom_site_fract_y
 _atom_site_fract_z
 _atom_site_occupancy
  Ba  Ba0  1  0.31962900  0.73697600  0.49994700  1
  Ba  Ba1  1  0.81962900  0.26302400  0.00005300  1
  Ba  Ba2  1  0.68037100  0.26302400  0.50005300  1
  Ba  Ba3  1  0.18037100  0.73697600  0.99994700  1
  Mg  Mg4  1  0.39634100  0.30322000  0.80916900  1
  Mg  Mg5  1  0.89634100  0.69678000  0.69083100  1
  Mg  Mg6  1  0.10365900  0.30322000  0.30916900  1
  Mg  Mg7  1  0.60365900  0.69678000  0.19083100  1
  Cu  Cu8  1  0.61332600  0.80643600  0.81349000  1
  Cu  Cu9  1  0.38667400  0.19356400  0.18651000  1
  Cu  Cu10  1  0.88667400  0.80643600  0.31349000  1
  Cu  Cu11  1  0.11332600  0.19356400  0.68651000  1
  F  F12  1  0.44582100  0.89158400  0.12514500  1
  F  F13  1  0.04755600  0.63418100  0.36873400  1
  F  F14  1  0.71121400  0.53066000  0.75056400  1
  F  F15  1  0.28878600  0.46934000  0.24943600  1
  F  F16  1  0.45634000  0.11286800  0.36434800  1
  F  F17  1  0.80993200  0.74018300  0.49683300  1
  F  F18  1  0.77744700  0.97367700  0.75248700  1
  F  F19  1  0.95634000  0.88713200  0.13565200  1
  F  F20  1  0.45244400  0.63418100  0.86873400  1
  F  F21  1  0.21121400  0.46934000  0.74943600  1
  F  F22  1  0.05417900  0.89158400  0.62514500  1
  F  F23  1  0.55417900  0.10841600  0.87485500  1
  F  F24  1  0.27744700  0.02632300  0.74751300  1
  F  F25  1  0.95764000  0.61588200  0.87354300  1
  F  F26  1  0.54366000  0.88713200  0.63565200  1
  F  F27  1  0.04366000  0.11286800  0.86434800  1
  F  F28  1  0.22255300  0.02632300  0.24751300  1
  F  F29  1  0.94582100  0.10841600  0.37485500  1
  F  F30  1  0.45764000  0.38411800  0.62645700  1
  F  F31  1  0.95244400  0.36581900  0.63126600  1
  F  F32  1  0.04236000  0.38411800  0.12645700  1
  F  F33  1  0.72255300  0.97367700  0.25248700  1
  F  F34  1  0.54236000  0.61588200  0.37354300  1
  F  F35  1  0.30993200  0.25981700  0.00316700  1
  F  F36  1  0.19006800  0.25981700  0.50316700  1
  F  F37  1  0.69006800  0.74018300  0.99683300  1
  F  F38  1  0.54755600  0.36581900  0.13126600  1
  F  F39  1  0.78878600  0.53066000  0.25056400  1
