# generated using pymatgen
data_MgNi(PO3)4
_symmetry_space_group_name_H-M   'P 1'
_cell_length_a   7.25582571
_cell_length_b   7.25582571
_cell_length_c   10.02352066
_cell_angle_alpha   67.12659797
_cell_angle_beta   67.12659797
_cell_angle_gamma   70.47774415
_symmetry_Int_Tables_number   1
_chemical_formula_structural   MgNi(PO3)4
_chemical_formula_sum   'Mg2 Ni2 P8 O24'
_cell_volume   437.43672631
_cell_formula_units_Z   2
loop_
 _symmetry_equiv_pos_site_id
 _symmetry_equiv_pos_as_xyz
  1  'x, y, z'
loop_
 _atom_site_type_symbol
 _atom_site_label
 _atom_site_symmetry_multiplicity
 _atom_site_fract_x
 _atom_site_fract_y
 _atom_site_fract_z
 _atom_site_occupancy
  Mg  Mg0  1  0.95269400  0.04730600  0.75000000  1
  Mg  Mg1  1  0.04730600  0.95269400  0.25000000  1
  Ni  Ni2  1  0.50000000  0.00000000  0.00000000  1
  Ni  Ni3  1  0.00000000  0.50000000  0.50000000  1
  P  P4  1  0.31408000  0.29350500  0.69741000  1
  P  P5  1  0.70649500  0.68592000  0.80259000  1
  P  P6  1  0.68592000  0.70649500  0.30259000  1
  P  P7  1  0.29350500  0.31408000  0.19741000  1
  P  P8  1  0.73120400  0.25079600  0.47908200  1
  P  P9  1  0.74920400  0.26879600  0.02091800  1
  P  P10  1  0.26879600  0.74920400  0.52091800  1
  P  P11  1  0.25079600  0.73120400  0.97908200  1
  O  O12  1  0.31670800  0.53094300  0.65139200  1
  O  O13  1  0.46905700  0.68329200  0.84860800  1
  O  O14  1  0.68329200  0.46905700  0.34860800  1
  O  O15  1  0.53094300  0.31670800  0.15139200  1
  O  O16  1  0.50454000  0.20856100  0.56914900  1
  O  O17  1  0.79143900  0.49546000  0.93085100  1
  O  O18  1  0.49546000  0.79143900  0.43085100  1
  O  O19  1  0.20856100  0.50454000  0.06914900  1
  O  O20  1  0.34473300  0.19202200  0.84905900  1
  O  O21  1  0.80797800  0.65526700  0.65094100  1
  O  O22  1  0.65526700  0.80797800  0.15094100  1
  O  O23  1  0.19202200  0.34473300  0.34905900  1
  O  O24  1  0.12367300  0.28049600  0.67519400  1
  O  O25  1  0.71950400  0.87632700  0.82480600  1
  O  O26  1  0.87632700  0.71950400  0.32480600  1
  O  O27  1  0.28049600  0.12367300  0.17519400  1
  O  O28  1  0.81447500  0.28519000  0.58348700  1
  O  O29  1  0.71481000  0.18552500  0.91651300  1
  O  O30  1  0.18552500  0.71481000  0.41651300  1
  O  O31  1  0.28519000  0.81447500  0.08348700  1
  O  O32  1  0.84871200  0.08830400  0.40525600  1
  O  O33  1  0.91169600  0.15128800  0.09474400  1
  O  O34  1  0.15128800  0.91169600  0.59474400  1
  O  O35  1  0.08830400  0.84871200  0.90525600  1
