# generated using pymatgen
data_CaPr(MoO3)2
_symmetry_space_group_name_H-M   'P 1'
_cell_length_a   5.89726700
_cell_length_b   5.59928600
_cell_length_c   9.74215525
_cell_angle_alpha   55.36664039
_cell_angle_beta   90.00000000
_cell_angle_gamma   90.00000000
_symmetry_Int_Tables_number   1
_chemical_formula_structural   CaPr(MoO3)2
_chemical_formula_sum   'Ca2 Pr2 Mo4 O12'
_cell_volume   264.68890212
_cell_formula_units_Z   2
loop_
 _symmetry_equiv_pos_site_id
 _symmetry_equiv_pos_as_xyz
  1  'x, y, z'
loop_
 _atom_site_type_symbol
 _atom_site_label
 _atom_site_symmetry_multiplicity
 _atom_site_fract_x
 _atom_site_fract_y
 _atom_site_fract_z
 _atom_site_occupancy
  Ca  Ca0  1  0.80555800  0.23323600  0.24936800  1
  Ca  Ca1  1  0.19444200  0.23323600  0.74936800  1
  Pr  Pr2  1  0.30822200  0.76840800  0.25059000  1
  Pr  Pr3  1  0.69177800  0.76840800  0.75059000  1
  Mo  Mo4  1  0.75360500  0.99943600  0.00055500  1
  Mo  Mo5  1  0.75183500  0.50111500  0.49943400  1
  Mo  Mo6  1  0.24639500  0.99943600  0.50055500  1
  Mo  Mo7  1  0.24816500  0.50111500  0.99943400  1
  O  O8  1  0.79801800  0.35251000  0.75713100  1
  O  O9  1  0.04869400  0.13189100  0.06250700  1
  O  O10  1  0.05360500  0.75613400  0.44786000  1
  O  O11  1  0.54580300  0.86734000  0.43756900  1
  O  O12  1  0.55422400  0.24163600  0.05273600  1
  O  O13  1  0.29434500  0.64741600  0.74274300  1
  O  O14  1  0.20198200  0.35251000  0.25713100  1
  O  O15  1  0.94639500  0.75613400  0.94786000  1
  O  O16  1  0.95130600  0.13189100  0.56250700  1
  O  O17  1  0.45419700  0.86734000  0.93756900  1
  O  O18  1  0.44577600  0.24163600  0.55273600  1
  O  O19  1  0.70565500  0.64741600  0.24274300  1
