# generated using pymatgen
data_MgTiF6
_symmetry_space_group_name_H-M   'P 1'
_cell_length_a   5.43469516
_cell_length_b   5.43469516
_cell_length_c   5.43469492
_cell_angle_alpha   58.13387939
_cell_angle_beta   58.13387939
_cell_angle_gamma   58.13387810
_symmetry_Int_Tables_number   1
_chemical_formula_structural   MgTiF6
_chemical_formula_sum   'Mg1 Ti1 F6'
_cell_volume   108.64863914
_cell_formula_units_Z   1
loop_
 _symmetry_equiv_pos_site_id
 _symmetry_equiv_pos_as_xyz
  1  'x, y, z'
loop_
 _atom_site_type_symbol
 _atom_site_label
 _atom_site_symmetry_multiplicity
 _atom_site_fract_x
 _atom_site_fract_y
 _atom_site_fract_z
 _atom_site_occupancy
  Mg  Mg0  1  0.50000000  0.50000000  0.50000000  1
  Ti  Ti1  1  0.00000000  0.00000000  0.00000000  1
  F  F2  1  0.67161700  0.84459300  0.24047100  1
  F  F3  1  0.84459300  0.24047100  0.67161700  1
  F  F4  1  0.75952900  0.32838300  0.15540700  1
  F  F5  1  0.15540700  0.75952900  0.32838300  1
  F  F6  1  0.32838300  0.15540700  0.75952900  1
  F  F7  1  0.24047100  0.67161700  0.84459300  1
