# generated using pymatgen
data_CaMo2P2O9
_symmetry_space_group_name_H-M   'P 1'
_cell_length_a   6.74183600
_cell_length_b   7.47425200
_cell_length_c   15.04679100
_cell_angle_alpha   90.00000000
_cell_angle_beta   90.00000000
_cell_angle_gamma   90.00000000
_symmetry_Int_Tables_number   1
_chemical_formula_structural   CaMo2P2O9
_chemical_formula_sum   'Ca4 Mo8 P8 O36'
_cell_volume   758.21052507
_cell_formula_units_Z   4
loop_
 _symmetry_equiv_pos_site_id
 _symmetry_equiv_pos_as_xyz
  1  'x, y, z'
loop_
 _atom_site_type_symbol
 _atom_site_label
 _atom_site_symmetry_multiplicity
 _atom_site_fract_x
 _atom_site_fract_y
 _atom_site_fract_z
 _atom_site_occupancy
  Ca  Ca0  1  0.75000000  0.89959300  0.77811700  1
  Ca  Ca1  1  0.75000000  0.60040700  0.27811700  1
  Ca  Ca2  1  0.25000000  0.39959300  0.72188300  1
  Ca  Ca3  1  0.25000000  0.10040700  0.22188300  1
  Mo  Mo4  1  0.75000000  0.36375500  0.87661200  1
  Mo  Mo5  1  0.25000000  0.63624500  0.12338800  1
  Mo  Mo6  1  0.25000000  0.86375500  0.62338800  1
  Mo  Mo7  1  0.75000000  0.13624500  0.37661200  1
  Mo  Mo8  1  0.50000000  0.00000000  0.00000000  1
  Mo  Mo9  1  0.50000000  0.50000000  0.50000000  1
  Mo  Mo10  1  0.00000000  0.50000000  0.50000000  1
  Mo  Mo11  1  0.00000000  0.00000000  0.00000000  1
  P  P12  1  0.25000000  0.36829100  0.92784800  1
  P  P13  1  0.75000000  0.63170900  0.07215200  1
  P  P14  1  0.75000000  0.86829100  0.57215200  1
  P  P15  1  0.25000000  0.13170900  0.42784800  1
  P  P16  1  0.75000000  0.39587400  0.69055100  1
  P  P17  1  0.75000000  0.10412600  0.19055100  1
  P  P18  1  0.25000000  0.89587400  0.80944900  1
  P  P19  1  0.25000000  0.60412600  0.30944900  1
  O  O20  1  0.05750500  0.60313600  0.36615000  1
  O  O21  1  0.55750500  0.39686400  0.63385000  1
  O  O22  1  0.94249500  0.10313600  0.13385000  1
  O  O23  1  0.44249500  0.89686400  0.86615000  1
  O  O24  1  0.94249500  0.39686400  0.63385000  1
  O  O25  1  0.44249500  0.60313600  0.36615000  1
  O  O26  1  0.05750500  0.89686400  0.86615000  1
  O  O27  1  0.55750500  0.10313600  0.13385000  1
  O  O28  1  0.25000000  0.31753500  0.47815400  1
  O  O29  1  0.75000000  0.68246500  0.52184600  1
  O  O30  1  0.75000000  0.81753500  0.02184600  1
  O  O31  1  0.25000000  0.18246500  0.97815400  1
  O  O32  1  0.75000000  0.11669500  0.93749300  1
  O  O33  1  0.25000000  0.88330500  0.06250700  1
  O  O34  1  0.25000000  0.61669500  0.56250700  1
  O  O35  1  0.75000000  0.38330500  0.43749300  1
  O  O36  1  0.75000000  0.22366500  0.74979300  1
  O  O37  1  0.25000000  0.77633500  0.25020700  1
  O  O38  1  0.25000000  0.72366500  0.75020700  1
  O  O39  1  0.75000000  0.27633500  0.24979300  1
  O  O40  1  0.43012900  0.12606400  0.36384000  1
  O  O41  1  0.93012900  0.87393600  0.63616000  1
  O  O42  1  0.56987100  0.62606400  0.13616000  1
  O  O43  1  0.06987100  0.37393600  0.86384000  1
  O  O44  1  0.56987100  0.87393600  0.63616000  1
  O  O45  1  0.06987100  0.12606400  0.36384000  1
  O  O46  1  0.43012900  0.37393600  0.86384000  1
  O  O47  1  0.93012900  0.62606400  0.13616000  1
  O  O48  1  0.75000000  0.48357300  0.00392600  1
  O  O49  1  0.25000000  0.05448500  0.74091300  1
  O  O50  1  0.25000000  0.44551500  0.24091300  1
  O  O51  1  0.75000000  0.55448500  0.75908700  1
  O  O52  1  0.75000000  0.01642700  0.50392600  1
  O  O53  1  0.25000000  0.98357300  0.49607400  1
  O  O54  1  0.25000000  0.51642700  0.99607400  1
  O  O55  1  0.75000000  0.94551500  0.25908700  1
