# generated using pymatgen
data_BaMgVF7
_symmetry_space_group_name_H-M   'P 1'
_cell_length_a   10.03027900
_cell_length_b   5.66080200
_cell_length_c   9.72827836
_cell_angle_alpha   87.02939224
_cell_angle_beta   90.00000000
_cell_angle_gamma   90.00000000
_symmetry_Int_Tables_number   1
_chemical_formula_structural   BaMgVF7
_chemical_formula_sum   'Ba4 Mg4 V4 F28'
_cell_volume   551.62379512
_cell_formula_units_Z   4
loop_
 _symmetry_equiv_pos_site_id
 _symmetry_equiv_pos_as_xyz
  1  'x, y, z'
loop_
 _atom_site_type_symbol
 _atom_site_label
 _atom_site_symmetry_multiplicity
 _atom_site_fract_x
 _atom_site_fract_y
 _atom_site_fract_z
 _atom_site_occupancy
  Ba  Ba0  1  0.32077600  0.73554500  0.49878400  1
  Ba  Ba1  1  0.82077600  0.26445500  0.00121600  1
  Ba  Ba2  1  0.67922400  0.26445500  0.50121600  1
  Ba  Ba3  1  0.17922400  0.73554500  0.99878400  1
  Mg  Mg4  1  0.39589300  0.30627500  0.81053300  1
  Mg  Mg5  1  0.89589300  0.69372500  0.68946700  1
  Mg  Mg6  1  0.10410700  0.30627500  0.31053300  1
  Mg  Mg7  1  0.60410700  0.69372500  0.18946700  1
  V  V8  1  0.61211300  0.80667800  0.81201900  1
  V  V9  1  0.38788700  0.19332200  0.18798100  1
  V  V10  1  0.88788700  0.80667800  0.31201900  1
  V  V11  1  0.11211300  0.19332200  0.68798100  1
  F  F12  1  0.44820500  0.88470100  0.12542000  1
  F  F13  1  0.05236300  0.62795500  0.36950800  1
  F  F14  1  0.71301400  0.52534400  0.75080700  1
  F  F15  1  0.28698600  0.47465600  0.24919300  1
  F  F16  1  0.45765200  0.11193700  0.36816700  1
  F  F17  1  0.81056500  0.74235600  0.49910000  1
  F  F18  1  0.78195000  0.97337600  0.75038900  1
  F  F19  1  0.95765200  0.88806300  0.13183300  1
  F  F20  1  0.44763700  0.62795500  0.86950800  1
  F  F21  1  0.21301400  0.47465600  0.74919300  1
  F  F22  1  0.05179500  0.88470100  0.62542000  1
  F  F23  1  0.55179500  0.11529900  0.87458000  1
  F  F24  1  0.28195000  0.02662400  0.74961100  1
  F  F25  1  0.95825200  0.61369500  0.87345800  1
  F  F26  1  0.54234800  0.88806300  0.63183300  1
  F  F27  1  0.04234800  0.11193700  0.86816700  1
  F  F28  1  0.21805000  0.02662400  0.24961100  1
  F  F29  1  0.94820500  0.11529900  0.37458000  1
  F  F30  1  0.45825200  0.38630500  0.62654200  1
  F  F31  1  0.94763700  0.37204500  0.63049200  1
  F  F32  1  0.04174800  0.38630500  0.12654200  1
  F  F33  1  0.71805000  0.97337600  0.25038900  1
  F  F34  1  0.54174800  0.61369500  0.37345800  1
  F  F35  1  0.31056500  0.25764400  0.00090000  1
  F  F36  1  0.18943500  0.25764400  0.50090000  1
  F  F37  1  0.68943500  0.74235600  0.99910000  1
  F  F38  1  0.55236300  0.37204500  0.13049200  1
  F  F39  1  0.78698600  0.52534400  0.25080700  1
