# generated using pymatgen
data_La2MgVO6
_symmetry_space_group_name_H-M   'P 1'
_cell_length_a   5.52165846
_cell_length_b   5.52165846
_cell_length_c   5.52165838
_cell_angle_alpha   61.22105014
_cell_angle_beta   61.22105014
_cell_angle_gamma   61.22105368
_symmetry_Int_Tables_number   1
_chemical_formula_structural   La2MgVO6
_chemical_formula_sum   'La2 Mg1 V1 O6'
_cell_volume   122.30934305
_cell_formula_units_Z   1
loop_
 _symmetry_equiv_pos_site_id
 _symmetry_equiv_pos_as_xyz
  1  'x, y, z'
loop_
 _atom_site_type_symbol
 _atom_site_label
 _atom_site_symmetry_multiplicity
 _atom_site_fract_x
 _atom_site_fract_y
 _atom_site_fract_z
 _atom_site_occupancy
  La  La0  1  0.75102200  0.75102200  0.75102200  1
  La  La1  1  0.24897800  0.24897800  0.24897800  1
  Mg  Mg2  1  0.50000000  0.50000000  0.50000000  1
  V  V3  1  0.00000000  0.00000000  0.00000000  1
  O  O4  1  0.75758300  0.31492500  0.17122700  1
  O  O5  1  0.17122700  0.75758300  0.31492500  1
  O  O6  1  0.31492500  0.17122700  0.75758300  1
  O  O7  1  0.24241700  0.68507500  0.82877300  1
  O  O8  1  0.68507500  0.82877300  0.24241700  1
  O  O9  1  0.82877300  0.24241700  0.68507500  1
