# generated using pymatgen
data_MgV2O4
_symmetry_space_group_name_H-M   'P 1'
_cell_length_a   6.06013041
_cell_length_b   6.06013041
_cell_length_c   14.83950800
_cell_angle_alpha   90.00000000
_cell_angle_beta   90.00000000
_cell_angle_gamma   120.00000444
_symmetry_Int_Tables_number   1
_chemical_formula_structural   MgV2O4
_chemical_formula_sum   'Mg6 V12 O24'
_cell_volume   471.96963025
_cell_formula_units_Z   6
loop_
 _symmetry_equiv_pos_site_id
 _symmetry_equiv_pos_as_xyz
  1  'x, y, z'
loop_
 _atom_site_type_symbol
 _atom_site_label
 _atom_site_symmetry_multiplicity
 _atom_site_fract_x
 _atom_site_fract_y
 _atom_site_fract_z
 _atom_site_occupancy
  Mg  Mg0  1  0.00000000  0.00000000  0.04661500  1
  Mg  Mg1  1  0.66666700  0.33333300  0.37513600  1
  Mg  Mg2  1  0.66666700  0.33333300  0.00291300  1
  Mg  Mg3  1  0.33333300  0.66666700  0.70788900  1
  Mg  Mg4  1  0.00000000  0.00000000  0.28966500  1
  Mg  Mg5  1  0.66666700  0.33333300  0.62439700  1
  V  V6  1  0.50183000  0.49817000  0.16657500  1
  V  V7  1  0.99634000  0.49817000  0.16657500  1
  V  V8  1  0.16725500  0.83274500  0.49908900  1
  V  V9  1  0.50183000  0.00366000  0.16657500  1
  V  V10  1  0.33333300  0.66666700  0.33241300  1
  V  V11  1  0.66549000  0.83274500  0.49908900  1
  V  V12  1  0.83430700  0.16569300  0.83348200  1
  V  V13  1  0.16725500  0.33451000  0.49908900  1
  V  V14  1  0.83430700  0.66861300  0.83348200  1
  V  V15  1  0.00000000  0.00000000  0.66554200  1
  V  V16  1  0.33138700  0.16569300  0.83348200  1
  V  V17  1  0.33333300  0.66666700  0.95776000  1
  O  O18  1  0.35818700  0.17909300  0.09096600  1
  O  O19  1  0.66666700  0.33333300  0.24158900  1
  O  O20  1  0.82090700  0.64181300  0.09096600  1
  O  O21  1  0.82090700  0.17909300  0.09096600  1
  O  O22  1  0.18067100  0.81932900  0.24640200  1
  O  O23  1  0.02846700  0.51423400  0.41961400  1
  O  O24  1  0.18067100  0.36134200  0.24640200  1
  O  O25  1  0.33333300  0.66666700  0.08852800  1
  O  O26  1  0.48576600  0.97153300  0.41961400  1
  O  O27  1  0.33333300  0.66666700  0.57255400  1
  O  O28  1  0.63865800  0.81932900  0.24640200  1
  O  O29  1  0.48576600  0.51423400  0.41961400  1
  O  O30  1  0.84671300  0.15328700  0.58041000  1
  O  O31  1  0.69513700  0.84756800  0.75315500  1
  O  O32  1  0.84671300  0.69342500  0.58041000  1
  O  O33  1  0.00000000  0.00000000  0.42625400  1
  O  O34  1  0.00000000  0.00000000  0.90702300  1
  O  O35  1  0.15243200  0.30486300  0.75315500  1
  O  O36  1  0.30657500  0.15328700  0.58041000  1
  O  O37  1  0.15243200  0.84756800  0.75315500  1
  O  O38  1  0.50923000  0.49077000  0.91240500  1
  O  O39  1  0.66666700  0.33333300  0.76133200  1
  O  O40  1  0.50923000  0.01846000  0.91240500  1
  O  O41  1  0.98154000  0.49077000  0.91240500  1
