# generated using pymatgen
data_SbF5
_symmetry_space_group_name_H-M   'P 1'
_cell_length_a   10.09578700
_cell_length_b   5.52164200
_cell_length_c   7.91525530
_cell_angle_alpha   69.05479900
_cell_angle_beta   90.00000000
_cell_angle_gamma   90.00000000
_symmetry_Int_Tables_number   1
_chemical_formula_structural   SbF5
_chemical_formula_sum   'Sb4 F20'
_cell_volume   412.08262833
_cell_formula_units_Z   4
loop_
 _symmetry_equiv_pos_site_id
 _symmetry_equiv_pos_as_xyz
  1  'x, y, z'
loop_
 _atom_site_type_symbol
 _atom_site_label
 _atom_site_symmetry_multiplicity
 _atom_site_fract_x
 _atom_site_fract_y
 _atom_site_fract_z
 _atom_site_occupancy
  Sb  Sb0  1  0.75196600  0.11856700  0.59674900  1
  Sb  Sb1  1  0.25196600  0.88143300  0.90325100  1
  Sb  Sb2  1  0.24803400  0.88143300  0.40325100  1
  Sb  Sb3  1  0.74803400  0.11856700  0.09674900  1
  F  F4  1  0.86968200  0.39603400  0.56849900  1
  F  F5  1  0.36968200  0.60396600  0.93150100  1
  F  F6  1  0.13031800  0.60396600  0.43150100  1
  F  F7  1  0.63031800  0.39603400  0.06849900  1
  F  F8  1  0.61597300  0.35648600  0.48838300  1
  F  F9  1  0.11597300  0.64351400  0.01161700  1
  F  F10  1  0.38402700  0.64351400  0.51161700  1
  F  F11  1  0.88402700  0.35648600  0.98838300  1
  F  F12  1  0.39015000  0.11733900  0.79740600  1
  F  F13  1  0.89015000  0.88266100  0.70259400  1
  F  F14  1  0.60985000  0.88266100  0.20259400  1
  F  F15  1  0.10985000  0.11733900  0.29740600  1
  F  F16  1  0.13571000  0.16144500  0.87341600  1
  F  F17  1  0.63571000  0.83855500  0.62658400  1
  F  F18  1  0.86429000  0.83855500  0.12658400  1
  F  F19  1  0.36429000  0.16144500  0.37341600  1
  F  F20  1  0.69135800  0.11685300  0.84635200  1
  F  F21  1  0.19135800  0.88314700  0.65364800  1
  F  F22  1  0.30864200  0.88314700  0.15364800  1
  F  F23  1  0.80864200  0.11685300  0.34635200  1
