# generated using pymatgen
data_Ba2CaCo2CuF14
_symmetry_space_group_name_H-M   'P 1'
_cell_length_a   7.47396690
_cell_length_b   7.47396690
_cell_length_c   14.92827368
_cell_angle_alpha   88.23039599
_cell_angle_beta   88.23039599
_cell_angle_gamma   42.68233081
_symmetry_Int_Tables_number   1
_chemical_formula_structural   Ba2CaCo2CuF14
_chemical_formula_sum   'Ba4 Ca2 Co4 Cu2 F28'
_cell_volume   565.01488453
_cell_formula_units_Z   2
loop_
 _symmetry_equiv_pos_site_id
 _symmetry_equiv_pos_as_xyz
  1  'x, y, z'
loop_
 _atom_site_type_symbol
 _atom_site_label
 _atom_site_symmetry_multiplicity
 _atom_site_fract_x
 _atom_site_fract_y
 _atom_site_fract_z
 _atom_site_occupancy
  Ba  Ba0  1  0.11803200  0.25617700  0.12725100  1
  Ba  Ba1  1  0.26151800  0.11996500  0.62757800  1
  Ba  Ba2  1  0.88003500  0.73848200  0.37242200  1
  Ba  Ba3  1  0.74382300  0.88196800  0.87274900  1
  Ca  Ca4  1  0.41699400  0.58300600  0.00000000  1
  Ca  Ca5  1  0.57941000  0.42059000  0.50000000  1
  Co  Co6  1  0.09226000  0.14608500  0.87422700  1
  Co  Co7  1  0.90405000  0.85099500  0.62541800  1
  Co  Co8  1  0.14900500  0.09595000  0.37458200  1
  Co  Co9  1  0.85391500  0.90774000  0.12577300  1
  Cu  Cu10  1  0.49898000  0.49450800  0.74907700  1
  Cu  Cu11  1  0.50549200  0.50102000  0.25092300  1
  F  F12  1  0.92266200  0.06332600  0.40340400  1
  F  F13  1  0.87756900  0.39573700  0.29422200  1
  F  F14  1  0.11829600  0.60547900  0.20379600  1
  F  F15  1  0.65082700  0.84213800  0.15257500  1
  F  F16  1  0.61374900  0.49267400  0.13262100  1
  F  F17  1  0.50732600  0.38625100  0.86737900  1
  F  F18  1  0.39452100  0.88170400  0.79620400  1
  F  F19  1  0.93667400  0.07733800  0.59659600  1
  F  F20  1  0.35594000  0.95919900  0.97287800  1
  F  F21  1  0.34525700  0.15255700  0.34838400  1
  F  F22  1  0.82208500  0.41857200  0.95748900  1
  F  F23  1  0.15786200  0.34917300  0.84742500  1
  F  F24  1  0.42288200  0.81982900  0.45950700  1
  F  F25  1  0.18017100  0.57711800  0.54049300  1
  F  F26  1  0.49996100  0.60787700  0.63427800  1
  F  F27  1  0.65556900  0.02570200  0.53095000  1
  F  F28  1  0.12692000  0.69997500  0.72657000  1
  F  F29  1  0.08024600  0.93127700  0.09542200  1
  F  F30  1  0.86776100  0.29687200  0.76672900  1
  F  F31  1  0.70312800  0.13223900  0.23327100  1
  F  F32  1  0.60426300  0.12243100  0.70577800  1
  F  F33  1  0.58142800  0.17791500  0.04251100  1
  F  F34  1  0.97429800  0.34443100  0.46905000  1
  F  F35  1  0.30002500  0.87308000  0.27343000  1
  F  F36  1  0.39212300  0.50003900  0.36572200  1
  F  F37  1  0.06872300  0.91975400  0.90457800  1
  F  F38  1  0.04080100  0.64406000  0.02712200  1
  F  F39  1  0.84744300  0.65474300  0.65161600  1
