# generated using pymatgen
data_Ca(CoO2)4
_symmetry_space_group_name_H-M   'P 1'
_cell_length_a   6.38433232
_cell_length_b   6.38433232
_cell_length_c   6.38433227
_cell_angle_alpha   52.42655693
_cell_angle_beta   52.42655693
_cell_angle_gamma   52.42656531
_symmetry_Int_Tables_number   1
_chemical_formula_structural   Ca(CoO2)4
_chemical_formula_sum   'Ca1 Co4 O8'
_cell_volume   151.28344720
_cell_formula_units_Z   1
loop_
 _symmetry_equiv_pos_site_id
 _symmetry_equiv_pos_as_xyz
  1  'x, y, z'
loop_
 _atom_site_type_symbol
 _atom_site_label
 _atom_site_symmetry_multiplicity
 _atom_site_fract_x
 _atom_site_fract_y
 _atom_site_fract_z
 _atom_site_occupancy
  Ca  Ca0  1  0.50000000  0.50000000  0.50000000  1
  Co  Co1  1  0.00000000  0.50000000  0.50000000  1
  Co  Co2  1  0.50000000  0.00000000  0.50000000  1
  Co  Co3  1  0.50000000  0.50000000  0.00000000  1
  Co  Co4  1  0.00000000  0.00000000  0.00000000  1
  O  O5  1  0.27561300  0.77276400  0.77276400  1
  O  O6  1  0.22723600  0.22723600  0.72438700  1
  O  O7  1  0.72438700  0.22723600  0.22723600  1
  O  O8  1  0.22723600  0.72438700  0.22723600  1
  O  O9  1  0.27721400  0.27721400  0.27721400  1
  O  O10  1  0.72278600  0.72278600  0.72278600  1
  O  O11  1  0.77276400  0.27561300  0.77276400  1
  O  O12  1  0.77276400  0.77276400  0.27561300  1
