# generated using pymatgen
data_Ca(TiS2)8
_symmetry_space_group_name_H-M   'P 1'
_cell_length_a   6.84043706
_cell_length_b   6.84043706
_cell_length_c   13.37710000
_cell_angle_alpha   90.00000000
_cell_angle_beta   90.00000000
_cell_angle_gamma   119.99999095
_symmetry_Int_Tables_number   1
_chemical_formula_structural   Ca(TiS2)8
_chemical_formula_sum   'Ca1 Ti8 S16'
_cell_volume   542.07621002
_cell_formula_units_Z   1
loop_
 _symmetry_equiv_pos_site_id
 _symmetry_equiv_pos_as_xyz
  1  'x, y, z'
loop_
 _atom_site_type_symbol
 _atom_site_label
 _atom_site_symmetry_multiplicity
 _atom_site_fract_x
 _atom_site_fract_y
 _atom_site_fract_z
 _atom_site_occupancy
  Ca  Ca0  1  0.00000000  0.00000000  0.00000000  1
  Ti  Ti1  1  0.50225100  0.49774900  0.74276000  1
  Ti  Ti2  1  0.49774900  0.50225100  0.25724000  1
  Ti  Ti3  1  0.50225100  0.00450100  0.74276000  1
  Ti  Ti4  1  0.49774900  0.99549900  0.25724000  1
  Ti  Ti5  1  0.99549900  0.49774900  0.74276000  1
  Ti  Ti6  1  0.00450100  0.50225100  0.25724000  1
  Ti  Ti7  1  0.00000000  0.00000000  0.73770900  1
  Ti  Ti8  1  0.00000000  0.00000000  0.26229100  1
  S  S9  1  0.83305300  0.66610700  0.14865000  1
  S  S10  1  0.83262100  0.66524300  0.63568700  1
  S  S11  1  0.83305300  0.16694700  0.14865000  1
  S  S12  1  0.83262100  0.16737900  0.63568700  1
  S  S13  1  0.33333300  0.66666700  0.14793800  1
  S  S14  1  0.33333300  0.66666700  0.63938600  1
  S  S15  1  0.33389300  0.16694700  0.14865000  1
  S  S16  1  0.33475700  0.16737900  0.63568700  1
  S  S17  1  0.66610700  0.83305300  0.85135000  1
  S  S18  1  0.66524300  0.83262100  0.36431300  1
  S  S19  1  0.66666700  0.33333300  0.85206200  1
  S  S20  1  0.66666700  0.33333300  0.36061400  1
  S  S21  1  0.16694700  0.83305300  0.85135000  1
  S  S22  1  0.16737900  0.83262100  0.36431300  1
  S  S23  1  0.16694700  0.33389300  0.85135000  1
  S  S24  1  0.16737900  0.33475700  0.36431300  1
