# generated using pymatgen
data_BaWF7
_symmetry_space_group_name_H-M   'P 1'
_cell_length_a   10.13006100
_cell_length_b   5.74079900
_cell_length_c   10.60783122
_cell_angle_alpha   86.77675478
_cell_angle_beta   90.00000000
_cell_angle_gamma   90.00000000
_symmetry_Int_Tables_number   1
_chemical_formula_structural   BaWF7
_chemical_formula_sum   'Ba4 W4 F28'
_cell_volume   615.91874296
_cell_formula_units_Z   4
loop_
 _symmetry_equiv_pos_site_id
 _symmetry_equiv_pos_as_xyz
  1  'x, y, z'
loop_
 _atom_site_type_symbol
 _atom_site_label
 _atom_site_symmetry_multiplicity
 _atom_site_fract_x
 _atom_site_fract_y
 _atom_site_fract_z
 _atom_site_occupancy
  Ba  Ba0  1  0.33286900  0.30243800  0.50700800  1
  Ba  Ba1  1  0.83286900  0.69756200  0.99299200  1
  Ba  Ba2  1  0.66713100  0.69756200  0.49299200  1
  Ba  Ba3  1  0.16713100  0.30243800  0.00700800  1
  W  W4  1  0.61090900  0.18506600  0.18668300  1
  W  W5  1  0.38909100  0.81493400  0.81331700  1
  W  W6  1  0.88909100  0.18506600  0.68668300  1
  W  W7  1  0.11090900  0.81493400  0.31331700  1
  F  F8  1  0.45604500  0.09700900  0.87474000  1
  F  F9  1  0.05179900  0.32964200  0.63016500  1
  F  F10  1  0.69527300  0.46366400  0.24214100  1
  F  F11  1  0.30472700  0.53633600  0.75785900  1
  F  F12  1  0.45478500  0.88569100  0.63954000  1
  F  F13  1  0.80540000  0.26049400  0.52254600  1
  F  F14  1  0.76490100  0.00102900  0.24189900  1
  F  F15  1  0.95478500  0.11430900  0.86046000  1
  F  F16  1  0.44820100  0.32964200  0.13016500  1
  F  F17  1  0.19527300  0.53633600  0.25785900  1
  F  F18  1  0.04395500  0.09700900  0.37474000  1
  F  F19  1  0.54395500  0.90299100  0.12526000  1
  F  F20  1  0.26490100  0.99897100  0.25810100  1
  F  F21  1  0.95844300  0.38787500  0.11311800  1
  F  F22  1  0.54521500  0.11430900  0.36046000  1
  F  F23  1  0.04521500  0.88569100  0.13954000  1
  F  F24  1  0.23509900  0.99897100  0.75810100  1
  F  F25  1  0.95604500  0.90299100  0.62526000  1
  F  F26  1  0.45844300  0.61212500  0.38688200  1
  F  F27  1  0.94820100  0.67035800  0.36983500  1
  F  F28  1  0.04155700  0.61212500  0.88688200  1
  F  F29  1  0.73509900  0.00102900  0.74189900  1
  F  F30  1  0.54155700  0.38787500  0.61311800  1
  F  F31  1  0.30540000  0.73950600  0.97745400  1
  F  F32  1  0.19460000  0.73950600  0.47745400  1
  F  F33  1  0.69460000  0.26049400  0.02254600  1
  F  F34  1  0.55179900  0.67035800  0.86983500  1
  F  F35  1  0.80472700  0.46366400  0.74214100  1
