# generated using pymatgen
data_Ba2Mn2CuF14
_symmetry_space_group_name_H-M   'P 1'
_cell_length_a   7.57804116
_cell_length_b   7.57804116
_cell_length_c   15.10987052
_cell_angle_alpha   89.38903337
_cell_angle_beta   89.38903337
_cell_angle_gamma   41.52436870
_symmetry_Int_Tables_number   1
_chemical_formula_structural   Ba2Mn2CuF14
_chemical_formula_sum   'Ba4 Mn4 Cu2 F28'
_cell_volume   575.20106582
_cell_formula_units_Z   2
loop_
 _symmetry_equiv_pos_site_id
 _symmetry_equiv_pos_as_xyz
  1  'x, y, z'
loop_
 _atom_site_type_symbol
 _atom_site_label
 _atom_site_symmetry_multiplicity
 _atom_site_fract_x
 _atom_site_fract_y
 _atom_site_fract_z
 _atom_site_occupancy
  Ba  Ba0  1  0.75334100  0.89314300  0.62718000  1
  Ba  Ba1  1  0.89314300  0.75334100  0.12718000  1
  Ba  Ba2  1  0.24665900  0.10685700  0.37282000  1
  Ba  Ba3  1  0.10685700  0.24665900  0.87282000  1
  Mn  Mn4  1  0.85478500  0.89508800  0.87426900  1
  Mn  Mn5  1  0.14521500  0.10491200  0.12573100  1
  Mn  Mn6  1  0.89508800  0.85478500  0.37426900  1
  Mn  Mn7  1  0.10491200  0.14521500  0.62573100  1
  Cu  Cu8  1  0.50000000  0.50000000  0.00000000  1
  Cu  Cu9  1  0.50000000  0.50000000  0.50000000  1
  F  F10  1  0.93164800  0.06010300  0.34768200  1
  F  F11  1  0.60833700  0.11494500  0.45131700  1
  F  F12  1  0.39166300  0.88505500  0.54868300  1
  F  F13  1  0.14841700  0.34660200  0.59022600  1
  F  F14  1  0.48591700  0.38510200  0.60511500  1
  F  F15  1  0.61489800  0.51408300  0.89488500  1
  F  F16  1  0.11494500  0.60833700  0.95131700  1
  F  F17  1  0.93989700  0.06835200  0.15231800  1
  F  F18  1  0.00746400  0.64535000  0.78468200  1
  F  F19  1  0.85158300  0.65339800  0.40977400  1
  F  F20  1  0.59301100  0.15585400  0.79726100  1
  F  F21  1  0.65339800  0.85158300  0.90977400  1
  F  F22  1  0.15585400  0.59301100  0.29726100  1
  F  F23  1  0.40698900  0.84414600  0.20273900  1
  F  F24  1  0.38510200  0.48591700  0.10511500  1
  F  F25  1  0.99253600  0.35465000  0.21531800  1
  F  F26  1  0.29367000  0.87675100  0.02645100  1
  F  F27  1  0.06835200  0.93989700  0.65231800  1
  F  F28  1  0.70633000  0.12324900  0.97354900  1
  F  F29  1  0.87675100  0.29367000  0.52645100  1
  F  F30  1  0.88505500  0.39166300  0.04868300  1
  F  F31  1  0.84414600  0.40698900  0.70273900  1
  F  F32  1  0.64535000  0.00746400  0.28468200  1
  F  F33  1  0.12324900  0.70633000  0.47354900  1
  F  F34  1  0.51408300  0.61489800  0.39488500  1
  F  F35  1  0.06010300  0.93164800  0.84768200  1
  F  F36  1  0.35465000  0.99253600  0.71531800  1
  F  F37  1  0.34660200  0.14841700  0.09022600  1
