# generated using pymatgen
data_CaFe(PO3)4
_symmetry_space_group_name_H-M   'P 1'
_cell_length_a   7.60122145
_cell_length_b   7.60122145
_cell_length_c   10.26340834
_cell_angle_alpha   67.04977873
_cell_angle_beta   67.04977873
_cell_angle_gamma   70.69968952
_symmetry_Int_Tables_number   1
_chemical_formula_structural   CaFe(PO3)4
_chemical_formula_sum   'Ca2 Fe2 P8 O24'
_cell_volume   491.57673974
_cell_formula_units_Z   2
loop_
 _symmetry_equiv_pos_site_id
 _symmetry_equiv_pos_as_xyz
  1  'x, y, z'
loop_
 _atom_site_type_symbol
 _atom_site_label
 _atom_site_symmetry_multiplicity
 _atom_site_fract_x
 _atom_site_fract_y
 _atom_site_fract_z
 _atom_site_occupancy
  Ca  Ca0  1  0.95320600  0.04679400  0.75000000  1
  Ca  Ca1  1  0.04679400  0.95320600  0.25000000  1
  Fe  Fe2  1  0.50000000  0.00000000  0.00000000  1
  Fe  Fe3  1  0.00000000  0.50000000  0.50000000  1
  P  P4  1  0.31901200  0.30375900  0.69473500  1
  P  P5  1  0.69624100  0.68098800  0.80526500  1
  P  P6  1  0.68098800  0.69624100  0.30526500  1
  P  P7  1  0.30375900  0.31901200  0.19473500  1
  P  P8  1  0.71832900  0.27289100  0.47517400  1
  P  P9  1  0.72710900  0.28167100  0.02482600  1
  P  P10  1  0.28167100  0.72710900  0.52482600  1
  P  P11  1  0.27289100  0.71832900  0.97517400  1
  O  O12  1  0.32045500  0.53033200  0.65629400  1
  O  O13  1  0.46966800  0.67954500  0.84370600  1
  O  O14  1  0.67954500  0.46966800  0.34370600  1
  O  O15  1  0.53033200  0.32045500  0.15629400  1
  O  O16  1  0.50131000  0.23351300  0.56513900  1
  O  O17  1  0.76648700  0.49869000  0.93486100  1
  O  O18  1  0.49869000  0.76648700  0.43486100  1
  O  O19  1  0.23351300  0.50131000  0.06513900  1
  O  O20  1  0.35297800  0.19535800  0.84188100  1
  O  O21  1  0.80464200  0.64702200  0.65811900  1
  O  O22  1  0.64702200  0.80464200  0.15811900  1
  O  O23  1  0.19535800  0.35297800  0.34188100  1
  O  O24  1  0.13775700  0.29196100  0.67269300  1
  O  O25  1  0.70803900  0.86224300  0.82730700  1
  O  O26  1  0.86224300  0.70803900  0.32730700  1
  O  O27  1  0.29196100  0.13775700  0.17269300  1
  O  O28  1  0.80143300  0.30912000  0.57296600  1
  O  O29  1  0.69088000  0.19856700  0.92703400  1
  O  O30  1  0.19856600  0.69088000  0.42703400  1
  O  O31  1  0.30912000  0.80143400  0.07296600  1
  O  O32  1  0.82916500  0.11078100  0.41057500  1
  O  O33  1  0.88921900  0.17083500  0.08942500  1
  O  O34  1  0.17083500  0.88921900  0.58942500  1
  O  O35  1  0.11078100  0.82916500  0.91057500  1
