# generated using pymatgen
data_MgWF6
_symmetry_space_group_name_H-M   'P 1'
_cell_length_a   5.66315337
_cell_length_b   5.66315337
_cell_length_c   5.66315404
_cell_angle_alpha   56.91228743
_cell_angle_beta   56.91228743
_cell_angle_gamma   56.91228817
_symmetry_Int_Tables_number   1
_chemical_formula_structural   MgWF6
_chemical_formula_sum   'Mg1 W1 F6'
_cell_volume   119.28062665
_cell_formula_units_Z   1
loop_
 _symmetry_equiv_pos_site_id
 _symmetry_equiv_pos_as_xyz
  1  'x, y, z'
loop_
 _atom_site_type_symbol
 _atom_site_label
 _atom_site_symmetry_multiplicity
 _atom_site_fract_x
 _atom_site_fract_y
 _atom_site_fract_z
 _atom_site_occupancy
  Mg  Mg0  1  0.50000000  0.50000000  0.50000000  1
  W  W1  1  0.00000000  0.00000000  0.00000000  1
  F  F2  1  0.66076300  0.83834700  0.24555500  1
  F  F3  1  0.83834700  0.24555500  0.66076300  1
  F  F4  1  0.75444500  0.33923700  0.16165300  1
  F  F5  1  0.16165300  0.75444500  0.33923700  1
  F  F6  1  0.33923700  0.16165300  0.75444500  1
  F  F7  1  0.24555500  0.66076300  0.83834700  1
