# generated using pymatgen
data_CaWF6
_symmetry_space_group_name_H-M   'P 1'
_cell_length_a   6.05017333
_cell_length_b   6.05017333
_cell_length_c   6.05017353
_cell_angle_alpha   56.61592606
_cell_angle_beta   56.61592606
_cell_angle_gamma   56.61592243
_symmetry_Int_Tables_number   1
_chemical_formula_structural   CaWF6
_chemical_formula_sum   'Ca1 W1 F6'
_cell_volume   144.35671189
_cell_formula_units_Z   1
loop_
 _symmetry_equiv_pos_site_id
 _symmetry_equiv_pos_as_xyz
  1  'x, y, z'
loop_
 _atom_site_type_symbol
 _atom_site_label
 _atom_site_symmetry_multiplicity
 _atom_site_fract_x
 _atom_site_fract_y
 _atom_site_fract_z
 _atom_site_occupancy
  Ca  Ca0  1  0.50000000  0.50000000  0.50000000  1
  W  W1  1  0.00000000  0.00000000  0.00000000  1
  F  F2  1  0.67378400  0.85819500  0.22869000  1
  F  F3  1  0.85819500  0.22869000  0.67378400  1
  F  F4  1  0.77131000  0.32621600  0.14180500  1
  F  F5  1  0.14180500  0.77131000  0.32621600  1
  F  F6  1  0.32621600  0.14180500  0.77131000  1
  F  F7  1  0.22869000  0.67378400  0.85819500  1
