# generated using pymatgen
data_Ca2CrIrO6
_symmetry_space_group_name_H-M   'P 1'
_cell_length_a   5.56248200
_cell_length_b   5.38596400
_cell_length_c   9.41222073
_cell_angle_alpha   55.03711123
_cell_angle_beta   90.00000000
_cell_angle_gamma   90.00000000
_symmetry_Int_Tables_number   1
_chemical_formula_structural   Ca2CrIrO6
_chemical_formula_sum   'Ca4 Cr2 Ir2 O12'
_cell_volume   231.09232358
_cell_formula_units_Z   2
loop_
 _symmetry_equiv_pos_site_id
 _symmetry_equiv_pos_as_xyz
  1  'x, y, z'
loop_
 _atom_site_type_symbol
 _atom_site_label
 _atom_site_symmetry_multiplicity
 _atom_site_fract_x
 _atom_site_fract_y
 _atom_site_fract_z
 _atom_site_occupancy
  Ca  Ca0  1  0.94552500  0.23578800  0.75062600  1
  Ca  Ca1  1  0.44552500  0.76421200  0.74937400  1
  Ca  Ca2  1  0.55447500  0.23578800  0.25062600  1
  Ca  Ca3  1  0.05447500  0.76421200  0.24937400  1
  Cr  Cr4  1  0.50000000  0.00000000  0.00000000  1
  Cr  Cr5  1  0.00000000  0.00000000  0.50000000  1
  Ir  Ir6  1  0.50000000  0.50000000  0.50000000  1
  Ir  Ir7  1  0.00000000  0.50000000  0.00000000  1
  O  O8  1  0.47274000  0.65635100  0.25142200  1
  O  O9  1  0.20120300  0.84554900  0.95215500  1
  O  O10  1  0.20357900  0.25575400  0.54711700  1
  O  O11  1  0.70357900  0.74424600  0.95288300  1
  O  O12  1  0.70120300  0.15445100  0.54784500  1
  O  O13  1  0.97274000  0.34364900  0.24857800  1
  O  O14  1  0.02726000  0.65635100  0.75142200  1
  O  O15  1  0.29879700  0.84554900  0.45215500  1
  O  O16  1  0.29642100  0.25575400  0.04711700  1
  O  O17  1  0.79879700  0.15445100  0.04784500  1
  O  O18  1  0.79642100  0.74424600  0.45288300  1
  O  O19  1  0.52726000  0.34364900  0.74857800  1
