# generated using pymatgen
data_Ca2Co3O8
_symmetry_space_group_name_H-M   'P 1'
_cell_length_a   6.21560488
_cell_length_b   6.21560488
_cell_length_c   4.94176245
_cell_angle_alpha   72.59786681
_cell_angle_beta   72.59786681
_cell_angle_gamma   55.79566440
_symmetry_Int_Tables_number   1
_chemical_formula_structural   Ca2Co3O8
_chemical_formula_sum   'Ca2 Co3 O8'
_cell_volume   148.58128202
_cell_formula_units_Z   1
loop_
 _symmetry_equiv_pos_site_id
 _symmetry_equiv_pos_as_xyz
  1  'x, y, z'
loop_
 _atom_site_type_symbol
 _atom_site_label
 _atom_site_symmetry_multiplicity
 _atom_site_fract_x
 _atom_site_fract_y
 _atom_site_fract_z
 _atom_site_occupancy
  Ca  Ca0  1  0.72370900  0.72370900  0.33084300  1
  Ca  Ca1  1  0.27629100  0.27629100  0.66915700  1
  Co  Co2  1  0.00000000  0.00000000  0.50000000  1
  Co  Co3  1  0.74404400  0.25595600  0.00000000  1
  Co  Co4  1  0.25595600  0.74404400  0.00000000  1
  O  O5  1  0.39698800  0.39698800  0.96269500  1
  O  O6  1  0.60301200  0.60301200  0.03730500  1
  O  O7  1  0.90354400  0.90354400  0.90395800  1
  O  O8  1  0.09645600  0.09645600  0.09604200  1
  O  O9  1  0.31739500  0.87852200  0.61219800  1
  O  O10  1  0.87852200  0.31739500  0.61219800  1
  O  O11  1  0.12147800  0.68260500  0.38780200  1
  O  O12  1  0.68260500  0.12147800  0.38780200  1
