# generated using pymatgen
data_Ba2ZnCu3F14
_symmetry_space_group_name_H-M   'P 1'
_cell_length_a   7.40316309
_cell_length_b   7.40316309
_cell_length_c   14.56251796
_cell_angle_alpha   88.75563165
_cell_angle_beta   88.75563165
_cell_angle_gamma   41.82936834
_symmetry_Int_Tables_number   1
_chemical_formula_structural   Ba2ZnCu3F14
_chemical_formula_sum   'Ba4 Zn2 Cu6 F28'
_cell_volume   532.13750188
_cell_formula_units_Z   2
loop_
 _symmetry_equiv_pos_site_id
 _symmetry_equiv_pos_as_xyz
  1  'x, y, z'
loop_
 _atom_site_type_symbol
 _atom_site_label
 _atom_site_symmetry_multiplicity
 _atom_site_fract_x
 _atom_site_fract_y
 _atom_site_fract_z
 _atom_site_occupancy
  Ba  Ba0  1  0.11904100  0.26335500  0.87689600  1
  Ba  Ba1  1  0.26335500  0.11904100  0.37689600  1
  Ba  Ba2  1  0.88095900  0.73664500  0.12310400  1
  Ba  Ba3  1  0.73664500  0.88095900  0.62310400  1
  Zn  Zn4  1  0.42333900  0.57666100  0.75000000  1
  Zn  Zn5  1  0.57666100  0.42333900  0.25000000  1
  Cu  Cu6  1  0.10068900  0.13814700  0.62745100  1
  Cu  Cu7  1  0.89931100  0.86185300  0.37254900  1
  Cu  Cu8  1  0.13814700  0.10068900  0.12745100  1
  Cu  Cu9  1  0.86185300  0.89931100  0.87254900  1
  Cu  Cu10  1  0.50000000  0.50000000  0.50000000  1
  Cu  Cu11  1  0.50000000  0.50000000  0.00000000  1
  F  F12  1  0.89880600  0.08539700  0.16082300  1
  F  F13  1  0.85114500  0.40693400  0.04330300  1
  F  F14  1  0.14885500  0.59306600  0.95669700  1
  F  F15  1  0.66282900  0.83784000  0.90371000  1
  F  F16  1  0.60754500  0.49439100  0.87714700  1
  F  F17  1  0.50560900  0.39245500  0.62285300  1
  F  F18  1  0.40693400  0.85114500  0.54330300  1
  F  F19  1  0.91460300  0.10119400  0.33917700  1
  F  F20  1  0.36698400  0.96028300  0.72525500  1
  F  F21  1  0.33717100  0.16216000  0.09629000  1
  F  F22  1  0.80665500  0.42515000  0.71040600  1
  F  F23  1  0.16216000  0.33717100  0.59629000  1
  F  F24  1  0.42515000  0.80665500  0.21040600  1
  F  F25  1  0.19334500  0.57485000  0.28959400  1
  F  F26  1  0.49439100  0.60754500  0.37714700  1
  F  F27  1  0.63301600  0.03971700  0.27474500  1
  F  F28  1  0.13162600  0.70880000  0.48158500  1
  F  F29  1  0.10119400  0.91460300  0.83917700  1
  F  F30  1  0.86837400  0.29120000  0.51841500  1
  F  F31  1  0.70880000  0.13162600  0.98158500  1
  F  F32  1  0.59306600  0.14885500  0.45669700  1
  F  F33  1  0.57485000  0.19334500  0.78959400  1
  F  F34  1  0.96028300  0.36698400  0.22525500  1
  F  F35  1  0.29120000  0.86837400  0.01841500  1
  F  F36  1  0.39245500  0.50560900  0.12285300  1
  F  F37  1  0.08539700  0.89880600  0.66082300  1
  F  F38  1  0.03971700  0.63301600  0.77474500  1
  F  F39  1  0.83784000  0.66282900  0.40371000  1
