# generated using pymatgen
data_CaMn3P3O13
_symmetry_space_group_name_H-M   'P 1'
_cell_length_a   6.26460000
_cell_length_b   7.77863700
_cell_length_c   10.37630303
_cell_angle_alpha   80.54912940
_cell_angle_beta   90.00000000
_cell_angle_gamma   90.00000000
_symmetry_Int_Tables_number   1
_chemical_formula_structural   CaMn3P3O13
_chemical_formula_sum   'Ca2 Mn6 P6 O26'
_cell_volume   498.77461711
_cell_formula_units_Z   2
loop_
 _symmetry_equiv_pos_site_id
 _symmetry_equiv_pos_as_xyz
  1  'x, y, z'
loop_
 _atom_site_type_symbol
 _atom_site_label
 _atom_site_symmetry_multiplicity
 _atom_site_fract_x
 _atom_site_fract_y
 _atom_site_fract_z
 _atom_site_occupancy
  Ca  Ca0  1  0.75000000  0.34491700  0.19276100  1
  Ca  Ca1  1  0.25000000  0.65508300  0.80723900  1
  Mn  Mn2  1  0.25000000  0.65129900  0.20603200  1
  Mn  Mn3  1  0.75000000  0.34870100  0.79396800  1
  Mn  Mn4  1  0.25000000  0.22875700  0.43521800  1
  Mn  Mn5  1  0.50000000  0.00000000  0.00000000  1
  Mn  Mn6  1  0.75000000  0.77124300  0.56478200  1
  Mn  Mn7  1  0.00000000  0.00000000  0.00000000  1
  P  P8  1  0.25000000  0.78962900  0.48494200  1
  P  P9  1  0.75000000  0.21037100  0.51505800  1
  P  P10  1  0.25000000  0.25767300  0.75984600  1
  P  P11  1  0.75000000  0.74232700  0.24015400  1
  P  P12  1  0.75000000  0.68381900  0.88566300  1
  P  P13  1  0.25000000  0.31618100  0.11433700  1
  O  O14  1  0.75000000  0.63994500  0.74287300  1
  O  O15  1  0.55916500  0.25009000  0.41584400  1
  O  O16  1  0.25000000  0.21155700  0.62368300  1
  O  O17  1  0.54502200  0.78838300  0.90308000  1
  O  O18  1  0.75000000  0.34874400  0.60625800  1
  O  O19  1  0.75000000  0.11759400  0.91365000  1
  O  O20  1  0.25000000  0.65125600  0.39374200  1
  O  O21  1  0.04502200  0.21161700  0.09692000  1
  O  O22  1  0.25000000  0.97353000  0.40965900  1
  O  O23  1  0.75000000  0.02647000  0.59034100  1
  O  O24  1  0.05867100  0.37592000  0.78682300  1
  O  O25  1  0.25000000  0.88240600  0.08635000  1
  O  O26  1  0.55867100  0.62408000  0.21317700  1
  O  O27  1  0.75000000  0.49820700  0.96555700  1
  O  O28  1  0.75000000  0.78844300  0.37631700  1
  O  O29  1  0.45497800  0.21161700  0.09692000  1
  O  O30  1  0.94083500  0.25009000  0.41584400  1
  O  O31  1  0.44083500  0.74991000  0.58415600  1
  O  O32  1  0.44132900  0.37592000  0.78682300  1
  O  O33  1  0.25000000  0.36005500  0.25712700  1
  O  O34  1  0.75000000  0.91128400  0.13790200  1
  O  O35  1  0.25000000  0.08871600  0.86209800  1
  O  O36  1  0.94132900  0.62408000  0.21317700  1
  O  O37  1  0.95497800  0.78838300  0.90308000  1
  O  O38  1  0.05916500  0.74991000  0.58415600  1
  O  O39  1  0.25000000  0.50179300  0.03444300  1
