# generated using pymatgen
data_Li(MnS2)2
_symmetry_space_group_name_H-M   'P 1'
_cell_length_a   6.97568335
_cell_length_b   6.97568335
_cell_length_c   6.97568335
_cell_angle_alpha   60.00000000
_cell_angle_beta   60.00000000
_cell_angle_gamma   60.00000000
_symmetry_Int_Tables_number   1
_chemical_formula_structural   Li(MnS2)2
_chemical_formula_sum   'Li2 Mn4 S8'
_cell_volume   240.01880929
_cell_formula_units_Z   2
loop_
 _symmetry_equiv_pos_site_id
 _symmetry_equiv_pos_as_xyz
  1  'x, y, z'
loop_
 _atom_site_type_symbol
 _atom_site_label
 _atom_site_symmetry_multiplicity
 _atom_site_fract_x
 _atom_site_fract_y
 _atom_site_fract_z
 _atom_site_occupancy
  Li  Li0  1  0.25000000  0.25000000  0.25000000  1
  Li  Li1  1  0.00000000  0.00000000  0.00000000  1
  Mn  Mn2  1  0.12500000  0.62500000  0.62500000  1
  Mn  Mn3  1  0.62500000  0.62500000  0.12500000  1
  Mn  Mn4  1  0.62500000  0.62500000  0.62500000  1
  Mn  Mn5  1  0.62500000  0.12500000  0.62500000  1
  S  S6  1  0.41140900  0.86286400  0.86286400  1
  S  S7  1  0.86286400  0.86286400  0.41140900  1
  S  S8  1  0.86286400  0.86286400  0.86286400  1
  S  S9  1  0.83859100  0.38713600  0.38713600  1
  S  S10  1  0.38713600  0.83859100  0.38713600  1
  S  S11  1  0.38713600  0.38713600  0.83859100  1
  S  S12  1  0.86286400  0.41140900  0.86286400  1
  S  S13  1  0.38713600  0.38713600  0.38713600  1
