# generated using pymatgen
data_CoO2
_symmetry_space_group_name_H-M   'P 1'
_cell_length_a   6.86748845
_cell_length_b   6.86748845
_cell_length_c   6.86748845
_cell_angle_alpha   92.51090058
_cell_angle_beta   92.51090058
_cell_angle_gamma   155.83650229
_symmetry_Int_Tables_number   1
_chemical_formula_structural   CoO2
_chemical_formula_sum   'Co4 O8'
_cell_volume   129.64392938
_cell_formula_units_Z   4
loop_
 _symmetry_equiv_pos_site_id
 _symmetry_equiv_pos_as_xyz
  1  'x, y, z'
loop_
 _atom_site_type_symbol
 _atom_site_label
 _atom_site_symmetry_multiplicity
 _atom_site_fract_x
 _atom_site_fract_y
 _atom_site_fract_z
 _atom_site_occupancy
  Co  Co0  1  0.83406800  0.34972800  0.18379600  1
  Co  Co1  1  0.65027200  0.83406800  0.48433900  1
  Co  Co2  1  0.34972800  0.16593200  0.51566100  1
  Co  Co3  1  0.16593200  0.65027200  0.81620400  1
  O  O4  1  0.54091700  0.16463700  0.70555500  1
  O  O5  1  0.83536300  0.54091700  0.37628000  1
  O  O6  1  0.16463700  0.45908300  0.62372000  1
  O  O7  1  0.45908300  0.83536300  0.29444500  1
  O  O8  1  0.20312400  0.84567400  0.04879700  1
  O  O9  1  0.15432600  0.20312400  0.35745000  1
  O  O10  1  0.79687600  0.15432600  0.95120300  1
  O  O11  1  0.84567400  0.79687600  0.64255000  1
