# generated using pymatgen
data_BaZnCuF7
_symmetry_space_group_name_H-M   'P 1'
_cell_length_a   9.97958300
_cell_length_b   5.61481700
_cell_length_c   9.62969662
_cell_angle_alpha   86.73242736
_cell_angle_beta   90.00000000
_cell_angle_gamma   90.00000000
_symmetry_Int_Tables_number   1
_chemical_formula_structural   BaZnCuF7
_chemical_formula_sum   'Ba4 Zn4 Cu4 F28'
_cell_volume   538.70867673
_cell_formula_units_Z   4
loop_
 _symmetry_equiv_pos_site_id
 _symmetry_equiv_pos_as_xyz
  1  'x, y, z'
loop_
 _atom_site_type_symbol
 _atom_site_label
 _atom_site_symmetry_multiplicity
 _atom_site_fract_x
 _atom_site_fract_y
 _atom_site_fract_z
 _atom_site_occupancy
  Ba  Ba0  1  0.31790000  0.74051000  0.49950000  1
  Ba  Ba1  1  0.81790000  0.25949000  0.00050000  1
  Ba  Ba2  1  0.68210000  0.25949000  0.50050000  1
  Ba  Ba3  1  0.18210000  0.74051000  0.99950000  1
  Zn  Zn4  1  0.39864200  0.30274400  0.81080400  1
  Zn  Zn5  1  0.89864200  0.69725600  0.68919600  1
  Zn  Zn6  1  0.10135800  0.30274400  0.31080400  1
  Zn  Zn7  1  0.60135800  0.69725600  0.18919600  1
  Cu  Cu8  1  0.61282800  0.80561400  0.81232700  1
  Cu  Cu9  1  0.38717200  0.19438600  0.18767300  1
  Cu  Cu10  1  0.88717200  0.80561400  0.31232700  1
  Cu  Cu11  1  0.11282800  0.19438600  0.68767300  1
  F  F12  1  0.44310700  0.89207500  0.12215500  1
  F  F13  1  0.04879100  0.63933600  0.37048400  1
  F  F14  1  0.70731700  0.52528400  0.75178500  1
  F  F15  1  0.29268300  0.47471600  0.24821500  1
  F  F16  1  0.45762800  0.11142600  0.36573300  1
  F  F17  1  0.80825300  0.73951800  0.49787600  1
  F  F18  1  0.77588900  0.97788700  0.75268200  1
  F  F19  1  0.95762800  0.88857400  0.13426700  1
  F  F20  1  0.45120900  0.63933600  0.87048400  1
  F  F21  1  0.20731700  0.47471600  0.74821500  1
  F  F22  1  0.05689300  0.89207500  0.62215500  1
  F  F23  1  0.55689300  0.10792500  0.87784500  1
  F  F24  1  0.27588900  0.02211300  0.74731800  1
  F  F25  1  0.95758100  0.61385000  0.87663300  1
  F  F26  1  0.54237200  0.88857400  0.63426700  1
  F  F27  1  0.04237200  0.11142600  0.86573300  1
  F  F28  1  0.22411100  0.02211300  0.24731800  1
  F  F29  1  0.94310700  0.10792500  0.37784500  1
  F  F30  1  0.45758100  0.38615000  0.62336700  1
  F  F31  1  0.95120900  0.36066400  0.62951600  1
  F  F32  1  0.04241900  0.38615000  0.12336700  1
  F  F33  1  0.72411100  0.97788700  0.25268200  1
  F  F34  1  0.54241900  0.61385000  0.37663300  1
  F  F35  1  0.30825300  0.26048200  0.00212400  1
  F  F36  1  0.19174700  0.26048200  0.50212400  1
  F  F37  1  0.69174700  0.73951800  0.99787600  1
  F  F38  1  0.54879100  0.36066400  0.12951600  1
  F  F39  1  0.79268300  0.52528400  0.25178500  1
