# generated using pymatgen
data_Ca3Mn3(AsO4)4
_symmetry_space_group_name_H-M   'P 1'
_cell_length_a   5.24923600
_cell_length_b   9.28126100
_cell_length_c   17.66268476
_cell_angle_alpha   63.00349168
_cell_angle_beta   90.00000000
_cell_angle_gamma   90.00000000
_symmetry_Int_Tables_number   1
_chemical_formula_structural   Ca3Mn3(AsO4)4
_chemical_formula_sum   'Ca6 Mn6 As8 O32'
_cell_volume   766.75068147
_cell_formula_units_Z   2
loop_
 _symmetry_equiv_pos_site_id
 _symmetry_equiv_pos_as_xyz
  1  'x, y, z'
loop_
 _atom_site_type_symbol
 _atom_site_label
 _atom_site_symmetry_multiplicity
 _atom_site_fract_x
 _atom_site_fract_y
 _atom_site_fract_z
 _atom_site_occupancy
  Ca  Ca0  1  0.53966300  0.31450800  0.23012000  1
  Ca  Ca1  1  0.03966300  0.68549200  0.26988000  1
  Ca  Ca2  1  0.46033700  0.68549200  0.76988000  1
  Ca  Ca3  1  0.96033700  0.31450800  0.73012000  1
  Ca  Ca4  1  0.50000000  0.00000000  0.50000000  1
  Ca  Ca5  1  0.00000000  0.00000000  0.00000000  1
  Mn  Mn6  1  0.48409500  0.19216700  0.62241200  1
  Mn  Mn7  1  0.51590500  0.80783300  0.37758800  1
  Mn  Mn8  1  0.98409500  0.80783300  0.87758800  1
  Mn  Mn9  1  0.01590500  0.19216700  0.12241200  1
  Mn  Mn10  1  0.00000000  0.50000000  0.50000000  1
  Mn  Mn11  1  0.50000000  0.50000000  0.00000000  1
  As  As12  1  0.00606500  0.03832600  0.34294300  1
  As  As13  1  0.49227600  0.43673000  0.40092000  1
  As  As14  1  0.99227600  0.56327000  0.09908000  1
  As  As15  1  0.00772400  0.43673000  0.90092000  1
  As  As16  1  0.99393500  0.96167400  0.65705700  1
  As  As17  1  0.50772400  0.56327000  0.59908000  1
  As  As18  1  0.49393500  0.03832600  0.84294300  1
  As  As19  1  0.50606500  0.96167400  0.15705700  1
  O  O20  1  0.44106900  0.81469600  0.25914200  1
  O  O21  1  0.94646400  0.74368900  0.01029800  1
  O  O22  1  0.38466300  0.43649800  0.31027600  1
  O  O23  1  0.41599000  0.14949500  0.14786100  1
  O  O24  1  0.61533700  0.56350200  0.68972400  1
  O  O25  1  0.05893100  0.81469600  0.75914200  1
  O  O26  1  0.88466300  0.56350200  0.18972400  1
  O  O27  1  0.69884000  0.50615400  0.89375200  1
  O  O28  1  0.66191200  0.09234700  0.90771700  1
  O  O29  1  0.55893100  0.18530400  0.74085800  1
  O  O30  1  0.08401000  0.14949500  0.64786100  1
  O  O31  1  0.30116000  0.49384600  0.10624800  1
  O  O32  1  0.30626000  0.57932100  0.41536700  1
  O  O33  1  0.33808800  0.90765300  0.09228300  1
  O  O34  1  0.66576300  0.96650900  0.64093900  1
  O  O35  1  0.16576300  0.03349100  0.85906100  1
  O  O36  1  0.80626000  0.42067900  0.08463300  1
  O  O37  1  0.11533700  0.43649800  0.81027600  1
  O  O38  1  0.16191200  0.90765300  0.59228300  1
  O  O39  1  0.19884000  0.49384600  0.60624800  1
  O  O40  1  0.83423700  0.96650900  0.14093900  1
  O  O41  1  0.33423700  0.03349100  0.35906100  1
  O  O42  1  0.05353600  0.25631100  0.98970200  1
  O  O43  1  0.44646400  0.25631100  0.48970200  1
  O  O44  1  0.69374000  0.42067900  0.58463300  1
  O  O45  1  0.94106900  0.18530400  0.24085800  1
  O  O46  1  0.58401000  0.85050500  0.85213900  1
  O  O47  1  0.83808800  0.09234700  0.40771700  1
  O  O48  1  0.55353600  0.74368900  0.51029800  1
  O  O49  1  0.80116000  0.50615400  0.39375200  1
  O  O50  1  0.19374000  0.57932100  0.91536700  1
  O  O51  1  0.91599000  0.85050500  0.35213900  1
