# generated using pymatgen
data_CaFe2P2O9
_symmetry_space_group_name_H-M   'P 1'
_cell_length_a   6.47724000
_cell_length_b   7.49594400
_cell_length_c   14.39737600
_cell_angle_alpha   90.00000000
_cell_angle_beta   90.00000000
_cell_angle_gamma   90.00000000
_symmetry_Int_Tables_number   1
_chemical_formula_structural   CaFe2P2O9
_chemical_formula_sum   'Ca4 Fe8 P8 O36'
_cell_volume   699.03620458
_cell_formula_units_Z   4
loop_
 _symmetry_equiv_pos_site_id
 _symmetry_equiv_pos_as_xyz
  1  'x, y, z'
loop_
 _atom_site_type_symbol
 _atom_site_label
 _atom_site_symmetry_multiplicity
 _atom_site_fract_x
 _atom_site_fract_y
 _atom_site_fract_z
 _atom_site_occupancy
  Ca  Ca0  1  0.25000000  0.89293800  0.77845400  1
  Ca  Ca1  1  0.25000000  0.60706200  0.27845400  1
  Ca  Ca2  1  0.75000000  0.39293800  0.72154600  1
  Ca  Ca3  1  0.75000000  0.10706200  0.22154600  1
  Fe  Fe4  1  0.25000000  0.35109800  0.88087100  1
  Fe  Fe5  1  0.75000000  0.64890200  0.11912900  1
  Fe  Fe6  1  0.75000000  0.85109800  0.61912900  1
  Fe  Fe7  1  0.25000000  0.14890200  0.38087100  1
  Fe  Fe8  1  0.00000000  0.00000000  0.00000000  1
  Fe  Fe9  1  0.00000000  0.50000000  0.50000000  1
  Fe  Fe10  1  0.50000000  0.50000000  0.50000000  1
  Fe  Fe11  1  0.50000000  0.00000000  0.00000000  1
  P  P12  1  0.75000000  0.36210200  0.93357200  1
  P  P13  1  0.25000000  0.63789800  0.06642800  1
  P  P14  1  0.25000000  0.86210200  0.56642800  1
  P  P15  1  0.75000000  0.13789800  0.43357200  1
  P  P16  1  0.25000000  0.38933200  0.69155200  1
  P  P17  1  0.25000000  0.11066800  0.19155200  1
  P  P18  1  0.75000000  0.88933200  0.80844800  1
  P  P19  1  0.75000000  0.61066800  0.30844800  1
  O  O20  1  0.55279800  0.60418000  0.36886200  1
  O  O21  1  0.05279800  0.39582000  0.63113800  1
  O  O22  1  0.44720200  0.10418000  0.13113800  1
  O  O23  1  0.94720200  0.89582000  0.86886200  1
  O  O24  1  0.44720200  0.39582000  0.63113800  1
  O  O25  1  0.94720200  0.60418000  0.36886200  1
  O  O26  1  0.55279800  0.89582000  0.86886200  1
  O  O27  1  0.05279800  0.10418000  0.13113800  1
  O  O28  1  0.75000000  0.32664000  0.48106700  1
  O  O29  1  0.25000000  0.67336000  0.51893300  1
  O  O30  1  0.25000000  0.82664000  0.01893300  1
  O  O31  1  0.75000000  0.17336000  0.98106700  1
  O  O32  1  0.25000000  0.12371300  0.94549100  1
  O  O33  1  0.75000000  0.87628700  0.05450900  1
  O  O34  1  0.75000000  0.62371300  0.55450900  1
  O  O35  1  0.25000000  0.37628700  0.44549100  1
  O  O36  1  0.25000000  0.21583800  0.75119900  1
  O  O37  1  0.75000000  0.78416200  0.24880100  1
  O  O38  1  0.75000000  0.71583800  0.74880100  1
  O  O39  1  0.25000000  0.28416200  0.25119900  1
  O  O40  1  0.93786500  0.12817900  0.36676400  1
  O  O41  1  0.43786500  0.87182100  0.63323600  1
  O  O42  1  0.06213500  0.62817900  0.13323600  1
  O  O43  1  0.56213500  0.37182100  0.86676400  1
  O  O44  1  0.06213500  0.87182100  0.63323600  1
  O  O45  1  0.56213500  0.12817900  0.36676400  1
  O  O46  1  0.93786500  0.37182100  0.86676400  1
  O  O47  1  0.43786500  0.62817900  0.13323600  1
  O  O48  1  0.25000000  0.49731000  0.99144300  1
  O  O49  1  0.75000000  0.04129000  0.73397100  1
  O  O50  1  0.75000000  0.45871000  0.23397100  1
  O  O51  1  0.25000000  0.54129000  0.76602900  1
  O  O52  1  0.25000000  0.00269000  0.49144300  1
  O  O53  1  0.75000000  0.99731000  0.50855700  1
  O  O54  1  0.75000000  0.50269000  0.00855700  1
  O  O55  1  0.25000000  0.95871000  0.26602900  1
