# generated using pymatgen
data_Ba2MgCu3F14
_symmetry_space_group_name_H-M   'P 1'
_cell_length_a   5.26447839
_cell_length_b   7.39419072
_cell_length_c   14.55035123
_cell_angle_alpha   91.42800861
_cell_angle_beta   90.23898034
_cell_angle_gamma   110.39005150
_symmetry_Int_Tables_number   1
_chemical_formula_structural   Ba2MgCu3F14
_chemical_formula_sum   'Ba4 Mg2 Cu6 F28'
_cell_volume   530.69136005
_cell_formula_units_Z   2
loop_
 _symmetry_equiv_pos_site_id
 _symmetry_equiv_pos_as_xyz
  1  'x, y, z'
loop_
 _atom_site_type_symbol
 _atom_site_label
 _atom_site_symmetry_multiplicity
 _atom_site_fract_x
 _atom_site_fract_y
 _atom_site_fract_z
 _atom_site_occupancy
  Ba  Ba0  1  0.11852500  0.37719000  0.62231200  1
  Ba  Ba1  1  0.25741800  0.37821500  0.12187200  1
  Ba  Ba2  1  0.87880100  0.62135000  0.37619800  1
  Ba  Ba3  1  0.74053700  0.62034800  0.87652900  1
  Mg  Mg4  1  0.42848000  0.00084900  0.74954600  1
  Mg  Mg5  1  0.56904400  0.99753200  0.24906500  1
  Cu  Cu6  1  0.09749500  0.23023900  0.87158600  1
  Cu  Cu7  1  0.90066300  0.76824300  0.12682100  1
  Cu  Cu8  1  0.13313400  0.23456800  0.37134400  1
  Cu  Cu9  1  0.86422100  0.76406400  0.62699000  1
  Cu  Cu10  1  0.49940000  0.99946700  0.99950500  1
  Cu  Cu11  1  0.49867800  0.99947600  0.49916700  1
  F  F12  1  0.88943000  0.98388900  0.33809000  1
  F  F13  1  0.86271100  0.26568500  0.45461000  1
  F  F14  1  0.13464300  0.73328900  0.54371200  1
  F  F15  1  0.66042200  0.50309600  0.59442400  1
  F  F16  1  0.60221600  0.10254800  0.61956300  1
  F  F17  1  0.50561800  0.89953600  0.87696800  1
  F  F18  1  0.40443300  0.25094200  0.95565400  1
  F  F19  1  0.90994100  0.01882300  0.16125400  1
  F  F20  1  0.36524100  0.31745500  0.77518800  1
  F  F21  1  0.33702500  0.49560000  0.40388300  1
  F  F22  1  0.80397200  0.22081500  0.78601100  1
  F  F23  1  0.16155400  0.49357900  0.90414200  1
  F  F24  1  0.41593800  0.22033400  0.28830400  1
  F  F25  1  0.19408500  0.77741900  0.21244900  1
  F  F26  1  0.49272100  0.09927700  0.12184200  1
  F  F27  1  0.63276500  0.68096900  0.22321400  1
  F  F28  1  0.12201300  0.83665300  0.01608600  1
  F  F29  1  0.10753600  0.01470900  0.66037900  1
  F  F30  1  0.87673000  0.16197900  0.98260400  1
  F  F31  1  0.70841800  0.84085500  0.51886500  1
  F  F32  1  0.59397500  0.74744000  0.04276200  1
  F  F33  1  0.58169800  0.77818200  0.71032800  1
  F  F34  1  0.95515700  0.32362800  0.27373600  1
  F  F35  1  0.28845100  0.15795500  0.47969700  1
  F  F36  1  0.39479300  0.89615900  0.37892500  1
  F  F37  1  0.08824300  0.97965600  0.83727700  1
  F  F38  1  0.04292000  0.67534600  0.72461000  1
  F  F39  1  0.83632800  0.50486800  0.09420100  1
