# generated using pymatgen
data_Ba2CuMo2F14
_symmetry_space_group_name_H-M   'P 1'
_cell_length_a   7.82458785
_cell_length_b   7.82458785
_cell_length_c   15.68792910
_cell_angle_alpha   87.04039652
_cell_angle_beta   87.04039652
_cell_angle_gamma   40.37743473
_symmetry_Int_Tables_number   1
_chemical_formula_structural   Ba2CuMo2F14
_chemical_formula_sum   'Ba4 Cu2 Mo4 F28'
_cell_volume   621.27619913
_cell_formula_units_Z   2
loop_
 _symmetry_equiv_pos_site_id
 _symmetry_equiv_pos_as_xyz
  1  'x, y, z'
loop_
 _atom_site_type_symbol
 _atom_site_label
 _atom_site_symmetry_multiplicity
 _atom_site_fract_x
 _atom_site_fract_y
 _atom_site_fract_z
 _atom_site_occupancy
  Ba  Ba0  1  0.74839000  0.89672400  0.62818400  1
  Ba  Ba1  1  0.89672400  0.74839000  0.12818400  1
  Ba  Ba2  1  0.25161000  0.10327600  0.37181600  1
  Ba  Ba3  1  0.10327600  0.25161000  0.87181600  1
  Cu  Cu4  1  0.50000000  0.50000000  0.00000000  1
  Cu  Cu5  1  0.50000000  0.50000000  0.50000000  1
  Mo  Mo6  1  0.85150100  0.90304200  0.87219900  1
  Mo  Mo7  1  0.14849900  0.09695800  0.12780100  1
  Mo  Mo8  1  0.90304200  0.85150100  0.37219900  1
  Mo  Mo9  1  0.09695800  0.14849900  0.62780100  1
  F  F10  1  0.92848200  0.07712500  0.34515900  1
  F  F11  1  0.58727800  0.11082100  0.45107700  1
  F  F12  1  0.41272200  0.88917900  0.54892300  1
  F  F13  1  0.13399800  0.36778500  0.59002200  1
  F  F14  1  0.51203400  0.36445100  0.60230200  1
  F  F15  1  0.63554900  0.48796600  0.89769800  1
  F  F16  1  0.11082100  0.58727800  0.95107700  1
  F  F17  1  0.92287500  0.07151800  0.15484100  1
  F  F18  1  0.99850300  0.64279800  0.77855300  1
  F  F19  1  0.86600200  0.63221500  0.40997800  1
  F  F20  1  0.57448800  0.17074500  0.79113500  1
  F  F21  1  0.63221500  0.86600200  0.90997800  1
  F  F22  1  0.17074500  0.57448800  0.29113500  1
  F  F23  1  0.42551200  0.82925500  0.20886500  1
  F  F24  1  0.36445100  0.51203400  0.10230200  1
  F  F25  1  0.00149700  0.35720200  0.22144700  1
  F  F26  1  0.28507900  0.87951800  0.01787900  1
  F  F27  1  0.07151800  0.92287500  0.65484100  1
  F  F28  1  0.71492100  0.12048200  0.98212100  1
  F  F29  1  0.87951800  0.28507900  0.51787900  1
  F  F30  1  0.88917900  0.41272200  0.04892300  1
  F  F31  1  0.82925500  0.42551200  0.70886500  1
  F  F32  1  0.64279800  0.99850300  0.27855300  1
  F  F33  1  0.12048200  0.71492100  0.48212100  1
  F  F34  1  0.48796600  0.63554900  0.39769800  1
  F  F35  1  0.07712500  0.92848200  0.84515900  1
  F  F36  1  0.35720200  0.00149700  0.72144700  1
  F  F37  1  0.36778500  0.13399800  0.09002200  1
