# generated using pymatgen
data_CaNiF5
_symmetry_space_group_name_H-M   'P 1'
_cell_length_a   10.06572200
_cell_length_b   5.50263500
_cell_length_c   7.69841607
_cell_angle_alpha   69.75395142
_cell_angle_beta   90.00000000
_cell_angle_gamma   90.00000000
_symmetry_Int_Tables_number   1
_chemical_formula_structural   CaNiF5
_chemical_formula_sum   'Ca4 Ni4 F20'
_cell_volume   400.05479809
_cell_formula_units_Z   4
loop_
 _symmetry_equiv_pos_site_id
 _symmetry_equiv_pos_as_xyz
  1  'x, y, z'
loop_
 _atom_site_type_symbol
 _atom_site_label
 _atom_site_symmetry_multiplicity
 _atom_site_fract_x
 _atom_site_fract_y
 _atom_site_fract_z
 _atom_site_occupancy
  Ca  Ca0  1  0.02159300  0.53287100  0.74339200  1
  Ca  Ca1  1  0.52159300  0.46712900  0.75660800  1
  Ca  Ca2  1  0.97840700  0.46712900  0.25660800  1
  Ca  Ca3  1  0.47840700  0.53287100  0.24339200  1
  Ni  Ni4  1  0.75300700  0.10970500  0.59880900  1
  Ni  Ni5  1  0.25300700  0.89029500  0.90119100  1
  Ni  Ni6  1  0.24699300  0.89029500  0.40119100  1
  Ni  Ni7  1  0.74699300  0.10970500  0.09880900  1
  F  F8  1  0.87993000  0.38677100  0.55635600  1
  F  F9  1  0.37993000  0.61322900  0.94364400  1
  F  F10  1  0.12007000  0.61322900  0.44364400  1
  F  F11  1  0.62007000  0.38677100  0.05635600  1
  F  F12  1  0.61411000  0.35542800  0.50581000  1
  F  F13  1  0.11411000  0.64457200  0.99419000  1
  F  F14  1  0.38589000  0.64457200  0.49419000  1
  F  F15  1  0.88589000  0.35542800  0.00581000  1
  F  F16  1  0.39349500  0.11677100  0.81141000  1
  F  F17  1  0.89349500  0.88322900  0.68859000  1
  F  F18  1  0.60650500  0.88322900  0.18859000  1
  F  F19  1  0.10650500  0.11677100  0.31141000  1
  F  F20  1  0.13728200  0.16462400  0.86138100  1
  F  F21  1  0.63728200  0.83537600  0.63861900  1
  F  F22  1  0.86271800  0.83537600  0.13861900  1
  F  F23  1  0.36271800  0.16462400  0.36138100  1
  F  F24  1  0.70127500  0.14998600  0.83791900  1
  F  F25  1  0.20127500  0.85001400  0.66208100  1
  F  F26  1  0.29872500  0.85001400  0.16208100  1
  F  F27  1  0.79872500  0.14998600  0.33791900  1
