# generated using pymatgen
data_YCu7O12
_symmetry_space_group_name_H-M   'P 1'
_cell_length_a   6.33383268
_cell_length_b   6.33383268
_cell_length_c   6.33383268
_cell_angle_alpha   109.47122063
_cell_angle_beta   109.47122063
_cell_angle_gamma   109.47122063
_symmetry_Int_Tables_number   1
_chemical_formula_structural   YCu7O12
_chemical_formula_sum   'Y1 Cu7 O12'
_cell_volume   195.60406129
_cell_formula_units_Z   1
loop_
 _symmetry_equiv_pos_site_id
 _symmetry_equiv_pos_as_xyz
  1  'x, y, z'
loop_
 _atom_site_type_symbol
 _atom_site_label
 _atom_site_symmetry_multiplicity
 _atom_site_fract_x
 _atom_site_fract_y
 _atom_site_fract_z
 _atom_site_occupancy
  Y  Y0  1  0.00000000  0.00000000  0.00000000  1
  Cu  Cu1  1  0.50000000  0.00000000  0.00000000  1
  Cu  Cu2  1  0.50000000  0.50000000  0.50000000  1
  Cu  Cu3  1  0.00000000  0.50000000  0.00000000  1
  Cu  Cu4  1  0.00000000  0.00000000  0.50000000  1
  Cu  Cu5  1  0.00000000  0.50000000  0.50000000  1
  Cu  Cu6  1  0.50000000  0.50000000  0.00000000  1
  Cu  Cu7  1  0.50000000  0.00000000  0.50000000  1
  O  O8  1  0.30569300  0.83115900  0.13685200  1
  O  O9  1  0.69430700  0.16884100  0.86314800  1
  O  O10  1  0.69430700  0.83115900  0.52546600  1
  O  O11  1  0.86314800  0.69430700  0.16884100  1
  O  O12  1  0.83115900  0.13685200  0.30569300  1
  O  O13  1  0.16884100  0.47453400  0.30569300  1
  O  O14  1  0.47453400  0.30569300  0.16884100  1
  O  O15  1  0.16884100  0.86314800  0.69430700  1
  O  O16  1  0.30569300  0.16884100  0.47453400  1
  O  O17  1  0.13685200  0.30569300  0.83115900  1
  O  O18  1  0.83115900  0.52546600  0.69430700  1
  O  O19  1  0.52546600  0.69430700  0.83115900  1
