# generated using pymatgen
data_MgCo(PO3)4
_symmetry_space_group_name_H-M   'P 1'
_cell_length_a   7.28968620
_cell_length_b   7.28968620
_cell_length_c   10.07134225
_cell_angle_alpha   66.96473160
_cell_angle_beta   66.96473160
_cell_angle_gamma   70.23063238
_symmetry_Int_Tables_number   1
_chemical_formula_structural   MgCo(PO3)4
_chemical_formula_sum   'Mg2 Co2 P8 O24'
_cell_volume   442.28103260
_cell_formula_units_Z   2
loop_
 _symmetry_equiv_pos_site_id
 _symmetry_equiv_pos_as_xyz
  1  'x, y, z'
loop_
 _atom_site_type_symbol
 _atom_site_label
 _atom_site_symmetry_multiplicity
 _atom_site_fract_x
 _atom_site_fract_y
 _atom_site_fract_z
 _atom_site_occupancy
  Mg  Mg0  1  0.95320400  0.04679600  0.25000000  1
  Mg  Mg1  1  0.04679600  0.95320400  0.75000000  1
  Co  Co2  1  0.00000000  0.50000000  0.00000000  1
  Co  Co3  1  0.50000000  0.00000000  0.50000000  1
  P  P4  1  0.70464900  0.68425200  0.30568200  1
  P  P5  1  0.31574800  0.29535100  0.19431800  1
  P  P6  1  0.29535100  0.31574800  0.69431800  1
  P  P7  1  0.68425200  0.70464900  0.80568200  1
  P  P8  1  0.74537500  0.26816700  0.52405000  1
  P  P9  1  0.73183300  0.25462500  0.97595000  1
  P  P10  1  0.25462500  0.73183300  0.47595000  1
  P  P11  1  0.26816700  0.74537500  0.02405000  1
  O  O12  1  0.46737200  0.68492300  0.34988300  1
  O  O13  1  0.31507700  0.53262800  0.15011700  1
  O  O14  1  0.53262800  0.31507700  0.65011700  1
  O  O15  1  0.68492300  0.46737200  0.84988300  1
  O  O16  1  0.78482800  0.49514500  0.43587800  1
  O  O17  1  0.50485500  0.21517200  0.06412200  1
  O  O18  1  0.21517200  0.50485500  0.56412200  1
  O  O19  1  0.49514500  0.78482800  0.93587800  1
  O  O20  1  0.80690800  0.65035300  0.15535400  1
  O  O21  1  0.34964700  0.19309200  0.34464600  1
  O  O22  1  0.19309200  0.34964700  0.84464600  1
  O  O23  1  0.65035300  0.80690800  0.65535400  1
  O  O24  1  0.72128100  0.87415700  0.32504300  1
  O  O25  1  0.12584300  0.27871900  0.17495700  1
  O  O26  1  0.27871900  0.12584300  0.67495700  1
  O  O27  1  0.87415700  0.72128100  0.82504300  1
  O  O28  1  0.71518300  0.18580800  0.41783300  1
  O  O29  1  0.81419200  0.28481700  0.08216700  1
  O  O30  1  0.28481700  0.81419200  0.58216700  1
  O  O31  1  0.18580800  0.71518300  0.91783300  1
  O  O32  1  0.90660200  0.15147600  0.59808900  1
  O  O33  1  0.84852400  0.09339800  0.90191100  1
  O  O34  1  0.09339800  0.84852400  0.40191100  1
  O  O35  1  0.15147600  0.90660200  0.09808900  1
