# generated using pymatgen
data_Ca2CoN2
_symmetry_space_group_name_H-M   'P 1'
_cell_length_a   5.93747053
_cell_length_b   5.93747053
_cell_length_c   6.71116610
_cell_angle_alpha   61.15956850
_cell_angle_beta   61.15956850
_cell_angle_gamma   49.24859309
_symmetry_Int_Tables_number   1
_chemical_formula_structural   Ca2CoN2
_chemical_formula_sum   'Ca4 Co2 N4'
_cell_volume   151.91659448
_cell_formula_units_Z   2
loop_
 _symmetry_equiv_pos_site_id
 _symmetry_equiv_pos_as_xyz
  1  'x, y, z'
loop_
 _atom_site_type_symbol
 _atom_site_label
 _atom_site_symmetry_multiplicity
 _atom_site_fract_x
 _atom_site_fract_y
 _atom_site_fract_z
 _atom_site_occupancy
  Ca  Ca0  1  0.31839100  0.31839100  0.60043200  1
  Ca  Ca1  1  0.68160900  0.68160900  0.39956800  1
  Ca  Ca2  1  0.95833500  0.95833500  0.77259500  1
  Ca  Ca3  1  0.04166500  0.04166500  0.22740500  1
  Co  Co4  1  0.62353900  0.62353900  0.87728300  1
  Co  Co5  1  0.37646100  0.37646100  0.12271700  1
  N  N6  1  0.81112100  0.81112100  0.61587900  1
  N  N7  1  0.18887900  0.18887900  0.38412100  1
  N  N8  1  0.52105100  0.52105100  0.19704500  1
  N  N9  1  0.47894900  0.47894900  0.80295500  1
