# generated using pymatgen
data_CaMn(PO3)4
_symmetry_space_group_name_H-M   'P 1'
_cell_length_a   7.62258587
_cell_length_b   7.62258587
_cell_length_c   10.48857772
_cell_angle_alpha   66.80821400
_cell_angle_beta   66.80821400
_cell_angle_gamma   70.53240644
_symmetry_Int_Tables_number   1
_chemical_formula_structural   CaMn(PO3)4
_chemical_formula_sum   'Ca2 Mn2 P8 O24'
_cell_volume   503.33168954
_cell_formula_units_Z   2
loop_
 _symmetry_equiv_pos_site_id
 _symmetry_equiv_pos_as_xyz
  1  'x, y, z'
loop_
 _atom_site_type_symbol
 _atom_site_label
 _atom_site_symmetry_multiplicity
 _atom_site_fract_x
 _atom_site_fract_y
 _atom_site_fract_z
 _atom_site_occupancy
  Ca  Ca0  1  0.95859000  0.04141000  0.75000000  1
  Ca  Ca1  1  0.04141000  0.95859000  0.25000000  1
  Mn  Mn2  1  0.50000000  0.00000000  0.00000000  1
  Mn  Mn3  1  0.00000000  0.50000000  0.50000000  1
  P  P4  1  0.31942500  0.30283900  0.69220100  1
  P  P5  1  0.69716100  0.68057500  0.80779900  1
  P  P6  1  0.68057500  0.69716100  0.30779900  1
  P  P7  1  0.30283900  0.31942500  0.19220100  1
  P  P8  1  0.72022000  0.26700500  0.47972000  1
  P  P9  1  0.73299500  0.27978000  0.02028000  1
  P  P10  1  0.27978000  0.73299500  0.52028000  1
  P  P11  1  0.26700500  0.72022000  0.97972000  1
  O  O12  1  0.32293700  0.52983600  0.64904300  1
  O  O13  1  0.47016400  0.67706300  0.85095700  1
  O  O14  1  0.67706300  0.47016400  0.35095700  1
  O  O15  1  0.52983600  0.32293700  0.14904300  1
  O  O16  1  0.50408500  0.22690200  0.56822300  1
  O  O17  1  0.77309800  0.49591500  0.93177700  1
  O  O18  1  0.49591500  0.77309800  0.43177700  1
  O  O19  1  0.22690200  0.50408500  0.06822300  1
  O  O20  1  0.34787100  0.19952700  0.83816600  1
  O  O21  1  0.80047300  0.65212900  0.66183400  1
  O  O22  1  0.65212900  0.80047300  0.16183400  1
  O  O23  1  0.19952700  0.34787100  0.33816600  1
  O  O24  1  0.14041400  0.29047500  0.66839400  1
  O  O25  1  0.70952500  0.85958600  0.83160600  1
  O  O26  1  0.85958600  0.70952500  0.33160600  1
  O  O27  1  0.29047500  0.14041400  0.16839400  1
  O  O28  1  0.80270000  0.30281000  0.57569000  1
  O  O29  1  0.69719000  0.19730000  0.92431000  1
  O  O30  1  0.19730000  0.69719000  0.42431000  1
  O  O31  1  0.30281000  0.80270000  0.07569000  1
  O  O32  1  0.83244700  0.10649600  0.41451500  1
  O  O33  1  0.89350400  0.16755300  0.08548500  1
  O  O34  1  0.16755300  0.89350400  0.58548500  1
  O  O35  1  0.10649600  0.83244700  0.91451500  1
