# generated using pymatgen
data_Ca2WN2
_symmetry_space_group_name_H-M   'P 1'
_cell_length_a   6.09621770
_cell_length_b   6.09621770
_cell_length_c   6.60970896
_cell_angle_alpha   65.64840934
_cell_angle_beta   65.64840934
_cell_angle_gamma   50.21017064
_symmetry_Int_Tables_number   1
_chemical_formula_structural   Ca2WN2
_chemical_formula_sum   'Ca4 W2 N4'
_cell_volume   168.04714926
_cell_formula_units_Z   2
loop_
 _symmetry_equiv_pos_site_id
 _symmetry_equiv_pos_as_xyz
  1  'x, y, z'
loop_
 _atom_site_type_symbol
 _atom_site_label
 _atom_site_symmetry_multiplicity
 _atom_site_fract_x
 _atom_site_fract_y
 _atom_site_fract_z
 _atom_site_occupancy
  Ca  Ca0  1  0.32206400  0.32206400  0.62928100  1
  Ca  Ca1  1  0.67793600  0.67793600  0.37071900  1
  Ca  Ca2  1  0.97483400  0.97483400  0.76760800  1
  Ca  Ca3  1  0.02516600  0.02516600  0.23239200  1
  W  W4  1  0.64367300  0.64367300  0.86941100  1
  W  W5  1  0.35632700  0.35632700  0.13058900  1
  N  N6  1  0.81681900  0.81681900  0.61429700  1
  N  N7  1  0.18318100  0.18318100  0.38570300  1
  N  N8  1  0.50250200  0.50250200  0.21822200  1
  N  N9  1  0.49749800  0.49749800  0.78177800  1
