# generated using pymatgen
data_BaBiF7
_symmetry_space_group_name_H-M   'P 1'
_cell_length_a   10.20350000
_cell_length_b   5.79584700
_cell_length_c   10.53127127
_cell_angle_alpha   87.93633324
_cell_angle_beta   90.00000000
_cell_angle_gamma   90.00000000
_symmetry_Int_Tables_number   1
_chemical_formula_structural   BaBiF7
_chemical_formula_sum   'Ba4 Bi4 F28'
_cell_volume   622.39360110
_cell_formula_units_Z   4
loop_
 _symmetry_equiv_pos_site_id
 _symmetry_equiv_pos_as_xyz
  1  'x, y, z'
loop_
 _atom_site_type_symbol
 _atom_site_label
 _atom_site_symmetry_multiplicity
 _atom_site_fract_x
 _atom_site_fract_y
 _atom_site_fract_z
 _atom_site_occupancy
  Ba  Ba0  1  0.33081600  0.30829500  0.50792700  1
  Ba  Ba1  1  0.83081600  0.69170500  0.99207300  1
  Ba  Ba2  1  0.66918400  0.69170500  0.49207300  1
  Ba  Ba3  1  0.16918400  0.30829500  0.00792700  1
  Bi  Bi4  1  0.60922100  0.18484500  0.18645700  1
  Bi  Bi5  1  0.39077900  0.81515500  0.81354300  1
  Bi  Bi6  1  0.89077900  0.18484500  0.68645700  1
  Bi  Bi7  1  0.10922100  0.81515500  0.31354300  1
  F  F8  1  0.44903500  0.11939400  0.88762700  1
  F  F9  1  0.05883900  0.34763700  0.63050800  1
  F  F10  1  0.69747300  0.48309300  0.24270000  1
  F  F11  1  0.30252700  0.51690700  0.75730000  1
  F  F12  1  0.45910600  0.89790200  0.63272800  1
  F  F13  1  0.79747400  0.25541400  0.51560400  1
  F  F14  1  0.76878400  0.98975400  0.24554600  1
  F  F15  1  0.95910600  0.10209800  0.86727200  1
  F  F16  1  0.44116100  0.34763700  0.13050800  1
  F  F17  1  0.19747300  0.51690700  0.25730000  1
  F  F18  1  0.05096500  0.11939400  0.38762700  1
  F  F19  1  0.55096500  0.88060600  0.11237300  1
  F  F20  1  0.26878400  0.01024600  0.25445400  1
  F  F21  1  0.96442700  0.40950800  0.11920200  1
  F  F22  1  0.54089400  0.10209800  0.36727200  1
  F  F23  1  0.04089400  0.89790200  0.13272800  1
  F  F24  1  0.23121600  0.01024600  0.75445400  1
  F  F25  1  0.94903500  0.88060600  0.61237300  1
  F  F26  1  0.46442700  0.59049200  0.38079800  1
  F  F27  1  0.94116100  0.65236300  0.36949200  1
  F  F28  1  0.03557300  0.59049200  0.88079800  1
  F  F29  1  0.73121600  0.98975400  0.74554600  1
  F  F30  1  0.53557300  0.40950800  0.61920200  1
  F  F31  1  0.29747400  0.74458600  0.98439600  1
  F  F32  1  0.20252600  0.74458600  0.48439600  1
  F  F33  1  0.70252600  0.25541400  0.01560400  1
  F  F34  1  0.55883900  0.65236300  0.86949200  1
  F  F35  1  0.80252700  0.48309300  0.74270000  1
